version 3
run General-0-20250419-17:32:27-11828
attr configname General
attr datetime 20250419-17:32:27
attr datetimef 20250419-173227
attr experiment General
attr inifile omnetpp.ini
attr iterationvars ""
attr iterationvarsd ""
attr iterationvarsf ""
attr measurement ""
attr network TestNetwork
attr processid 11828
attr repetition 0
attr replication #0
attr resultdir results
attr runnumber 0
attr seedset 0
config debug-on-errors true
config image-path ../../../../samples/inet4.5/images;../../../../samples/veins/images
config cmdenv-express-mode true
config cmdenv-autoflush true
config cmdenv-status-frequency 1s
config **.cmdenv-log-level info
config ned-path .
config image-path ../../images
config network TestNetwork
config debug-on-errors true
config print-undisposed true
config sim-time-limit 200s
config **.scalar-recording true
config **.vector-recording true
config *.playgroundSizeX 2500m
config *.playgroundSizeY 2500m
config *.playgroundSizeZ 50m
config *.annotations.draw true
config *.manager.updateInterval 1s
config *.manager.host "\"localhost\""
config *.manager.port 9999
config *.manager.autoShutdown true
config *.manager.launchConfig "xmldoc(\"grid3x3.launchd.xml\")"
config *.rsu[0].mobility.x 100
config *.rsu[0].mobility.y 100
config *.rsu[0].mobility.z 3
config *.rsu[*].applType "\"RSUControlApp\""
config *.rsu[*].appl.headerLength "80 bit"
config *.rsu[*].appl.sendBeacons false
config *.rsu[*].appl.dataOnSch false
config *.rsu[*].nic.phy80211p.antennaOffsetZ "0 m"
config *.connectionManager.sendDirect true
config *.connectionManager.maxInterfDist 2600m
config *.connectionManager.drawMaxIntfDist false
config *.**.nic.mac1609_4.useServiceChannel true
config *.**.nic.mac1609_4.txPower 20mW
config *.**.nic.mac1609_4.bitrate 6Mbps
config *.**.nic.phy80211p.minPowerLevel -110dBm
config *.**.nic.phy80211p.useNoiseFloor true
config *.**.nic.phy80211p.noiseFloor -98dBm
config *.**.nic.phy80211p.decider "xmldoc(\"config.xml\")"
config *.**.nic.phy80211p.analogueModels "xmldoc(\"config.xml\")"
config *.**.nic.phy80211p.usePropagationDelay true
config *.**.nic.phy80211p.antenna "xmldoc(\"antenna.xml\", \"/root/Antenna[@id='monopole']\")"
config *.node[*].nic.phy80211p.antennaOffsetY "0 m"
config *.node[*].nic.phy80211p.antennaOffsetZ "1.895 m"
config *.node[*].applType "\"VehicleControlApp\""
config *.node[*].appl.headerLength "80 bit"
config *.node[*].appl.sendBeacons false
config *.node[*].appl.dataOnSch true
config *.node[*].appl.beaconInterval 1s
config *.node[*].veinsmobility.x 0
config *.node[*].veinsmobility.y 0
config *.node[*].veinsmobility.z 0
config *.node[*].veinsmobility.setHostSpeed false
config *.node[*0].veinsmobility.accidentCount 0

vector 0 TestNetwork.rsu[0].nic.phy80211p RadioState ETV
vector 1 TestNetwork.rsu[0].nic.phy80211p RadioChannel ETV
vector 2 TestNetwork.node[0].nic.phy80211p RadioState ETV
vector 3 TestNetwork.node[0].nic.phy80211p RadioChannel ETV
vector 4 TestNetwork.manager posx ETV
vector 5 TestNetwork.manager posy ETV
vector 6 TestNetwork.node[1].nic.phy80211p RadioState ETV
vector 7 TestNetwork.node[1].nic.phy80211p RadioChannel ETV
vector 8 TestNetwork.manager posx ETV
vector 9 TestNetwork.manager posy ETV
vector 10 TestNetwork.node[2].nic.phy80211p RadioState ETV
vector 11 TestNetwork.node[2].nic.phy80211p RadioChannel ETV
vector 12 TestNetwork.manager posx ETV
vector 13 TestNetwork.manager posy ETV
vector 14 TestNetwork.manager speed ETV
vector 15 TestNetwork.manager speed ETV
vector 16 TestNetwork.manager speed ETV
vector 17 TestNetwork.manager acceleration ETV
vector 18 TestNetwork.manager co2emission ETV
vector 19 TestNetwork.manager acceleration ETV
vector 20 TestNetwork.manager co2emission ETV
vector 21 TestNetwork.manager acceleration ETV
vector 22 TestNetwork.manager co2emission ETV
4	21	1	20.2
4	274	2	20.2
4	530	3	23.4
4	777	4	23.4
4	1025	5	23.4
4	1271	6	23.4
4	1527	7	23.4
4	1783	8	23.4
4	2039	9	23.4
4	2285	10	23.4
4	2531	11	25.309934936165
4	2787	12	31.680183064399
4	3043	13	38.703674245131
4	3299	14	47.973207488415
4	3555	15	58.835694036344
4	3811	16	70.742247480339
4	4086	17	82.891830480339
4	4360	18	95.041413480339
5	21	1	38.5
5	274	2	40.708746208949
5	530	3	44.901634108718
5	777	4	51.051539865695
5	1025	5	59.633518665214
5	1271	6	70.51898942634
5	1527	7	82.571882835319
5	1783	8	94.389349740039
5	2039	9	105.74601316224
5	2285	10	114.08477111636
5	2531	11	121.78322489361
5	2787	12	126.06859758063
5	3043	13	129.8
5	3299	14	129.8
5	3555	15	129.8
5	3811	16	129.8
5	4086	17	129.8
5	4360	18	129.8
8	21	1	109.5
8	274	2	108.15713878986
8	530	3	105.38508547083
8	777	4	100.3016232746
8	1025	5	92.689895235328
8	1271	6	83.610119190579
8	1527	7	73.011069337814
8	1783	8	60.826030238048
8	2039	9	48.845114202041
8	2285	10	40.254603643703
8	2531	11	35.646080318755
8	2787	12	33.64007052669
8	3043	13	33.312540815683
8	3299	14	30.789802680793
8	3555	15	26.773846650164
8	3811	16	23.832464425485
8	4086	17	23.4
8	4360	18	23.4
9	21	1	120.2
9	274	2	120.2
9	530	3	123.4
9	777	4	123.4
9	1025	5	123.4
9	1271	6	123.4
9	1527	7	123.4
9	1783	8	123.4
9	2039	9	123.4
9	2285	10	123.4
9	2531	11	123.4
9	2787	12	123.6544476347
9	3043	13	123.70180132785
9	3299	14	124.05959309945
9	3555	15	126.1756920099
9	3811	16	132.3727490216
9	4086	17	140.40894061093
9	4360	18	150.00634125026
12	21	1	220.2
12	274	2	220.2
12	530	3	220.2
12	777	4	220.2
12	1025	5	220.2
12	1271	6	220.2
12	1527	7	220.2
12	1783	8	220.2
12	2039	9	220.2
12	2285	10	220.2
12	2531	11	217.85654402451
12	2787	12	210.111642
12	3043	13	199.402463
12	3299	14	186.093284
12	3555	15	170.726777
12	3811	16	155.36027
12	4086	17	140.530135
12	4360	18	130.2
13	21	1	240.5
13	274	2	242.54656216523
13	530	3	246.5680823727
13	777	4	252.13064372397
13	1025	5	259.10380848183
13	1271	6	267.72095675969
13	1527	7	278.3297600643
13	1783	8	291.53856336891
13	2039	9	305.31928168446
13	2285	10	314.6
13	2531	11	322.08954420547
13	2787	12	323.4
13	3043	13	323.4
13	3299	14	323.4
13	3555	15	323.4
13	3811	16	323.4
13	4086	17	323.4
13	4360	18	323.4
14	274	2	2.208746208949
14	530	3	4.1928878997685
14	777	4	6.1499057569774
14	1025	5	8.5819787995191
14	1271	6	10.885470761126
14	1527	7	12.052893408979
14	1783	8	11.817466904721
14	2039	9	11.356663422202
14	2285	10	8.3387579541158
14	2531	11	8.0718549000313
14	2787	12	8.0363796599656
14	3043	13	7.0606685687769
14	3299	14	9.2695332432845
14	3555	15	10.862486547928
14	3811	16	11.906553443996
14	4086	17	12.149583
14	4360	18	12.149583
15	274	2	1.3428612101357
15	530	3	2.7720533190295
15	777	4	5.0834621962393
15	1025	5	7.6117280392675
15	1271	6	9.0797760447487
15	1527	7	10.599049852765
15	1783	8	12.185039099766
15	2039	9	11.980916036008
15	2285	10	8.590510558338
15	2531	11	4.6085233249479
15	2787	12	2.0201457717699
15	3043	13	0.33016047173778
15	3299	14	2.5473965277536
15	3555	15	4.5841727887154
15	3811	16	7.0557012890805
15	4086	17	8.0674440806305
15	4360	18	9.5974006393265
16	274	2	2.0465621652314
16	530	3	4.0215202074731
16	777	4	5.5625613512704
16	1025	5	6.9731647578534
16	1271	6	8.617148277862
16	1527	7	10.608803304611
16	1783	8	13.208803304611
16	2039	9	13.780718315544
16	2285	10	9.2807183155441
16	2531	11	8.109179
16	2787	12	8.109179
16	3043	13	10.709179
16	3299	14	13.309179
16	3555	15	15.366507
16	3811	16	15.366507
16	4086	17	14.830135
16	4360	18	10.330135
17	530	3	1.9841416908195
17	777	4	1.9570178572088
17	1025	5	2.4320730425417
17	1271	6	2.3034919616068
17	1527	7	1.1674226478528
17	1783	8	-0.23542650425806
17	2039	9	-0.46080348251853
17	2285	10	-3.0179054680863
17	2531	11	-0.26690305408453
17	2787	12	-0.035475240065717
17	3043	13	-0.97571109118871
17	3299	14	2.2088646745076
17	3555	15	1.5929533046437
17	3811	16	1.0440668960674
17	4086	17	0.24302955600433
17	4360	18	0
18	530	3	3.3240217372676
18	777	4	4.3287081351975
18	1025	5	6.6125360195502
18	1271	6	7.7972479265789
18	1527	7	5.2442502513896
18	1783	8	1.1620341530737
18	2039	9	0.973
18	2285	10	0.973
18	2531	11	0.973
18	2787	12	1.4769138448879
18	3043	13	0.973
18	3299	14	6.5652498296059
18	3555	15	5.9225362914317
18	3811	16	4.8362310024576
18	4086	17	2.5733733897751
18	4360	18	1.8617708191023
19	530	3	1.4291921088938
19	777	4	2.3114088772098
19	1025	5	2.5282658430282
19	1271	6	1.4680480054813
19	1527	7	1.5192738080164
19	1783	8	1.5859892470006
19	2039	9	-0.20412306375801
19	2285	10	-3.3904054776697
19	2531	11	-3.9819872333901
19	2787	12	-2.588377553178
19	3043	13	-1.6899853000322
19	3299	14	2.2172360560158
19	3555	15	2.0367762609618
19	3811	16	2.4715285003651
19	4086	17	1.01174279155
19	4360	18	1.529956558696
20	530	3	2.2004846478233
20	777	4	4.1991018184651
20	1025	5	6.1558476512092
20	1271	6	4.8295801928684
20	1527	7	5.6120822832986
20	1783	8	6.5223431024462
20	2039	9	1.2574446177271
20	2285	10	0.973
20	2531	11	0.973
20	2787	12	0.973
20	3043	13	0.973
20	3299	14	2.5956247331742
20	3555	15	3.5902409600999
20	3811	16	5.6854618325733
20	4086	17	3.5147628338568
20	4360	18	5.1933922146988
21	530	3	1.9749580422416
21	777	4	1.5410411437973
21	1025	5	1.410603406583
21	1271	6	1.6439835200086
21	1527	7	1.9916550267488
21	1783	8	2.6
21	2039	9	0.5719150109333
21	2285	10	-4.5
21	2531	11	-1.1715393155441
21	2787	12	0
21	3043	13	2.6
21	3299	14	2.6
21	3555	15	2.057328
21	3811	16	0
21	4086	17	-0.53637200000001
21	4360	18	-4.5
22	530	3	3.2241087379109
22	777	4	3.4601227135953
22	1025	5	3.8482735654459
22	1271	6	4.9989159555905
22	1527	7	6.8241751695152
22	1783	8	10.236722670036
22	2039	9	3.9159612933627
22	2285	10	0.973
22	2531	11	0.973
22	2787	12	1.5504478096915
22	3043	13	8.4504419504902
22	3299	14	10.309350617457
22	3555	15	9.8054365602263
22	3811	16	2.186475787922
22	4086	17	0.973
22	4360	18	0.973

