file 9962 1745058953                                            
version 3
run General-0-20250419-17:32:27-11828
attr configname General
attr datetime 20250419-17:32:27
attr datetimef 20250419-173227
attr experiment General
attr inifile omnetpp.ini
attr iterationvars ""
attr iterationvarsd ""
attr iterationvarsf ""
attr measurement ""
attr network TestNetwork
attr processid 11828
attr repetition 0
attr replication #0
attr resultdir results
attr runnumber 0
attr seedset 0
config debug-on-errors true
config image-path ../../../../samples/inet4.5/images;../../../../samples/veins/images
config cmdenv-express-mode true
config cmdenv-autoflush true
config cmdenv-status-frequency 1s
config **.cmdenv-log-level info
config ned-path .
config image-path ../../images
config network TestNetwork
config debug-on-errors true
config print-undisposed true
config sim-time-limit 200s
config **.scalar-recording true
config **.vector-recording true
config *.playgroundSizeX 2500m
config *.playgroundSizeY 2500m
config *.playgroundSizeZ 50m
config *.annotations.draw true
config *.manager.updateInterval 1s
config *.manager.host "\"localhost\""
config *.manager.port 9999
config *.manager.autoShutdown true
config *.manager.launchConfig "xmldoc(\"grid3x3.launchd.xml\")"
config *.rsu[0].mobility.x 100
config *.rsu[0].mobility.y 100
config *.rsu[0].mobility.z 3
config *.rsu[*].applType "\"RSUControlApp\""
config *.rsu[*].appl.headerLength "80 bit"
config *.rsu[*].appl.sendBeacons false
config *.rsu[*].appl.dataOnSch false
config *.rsu[*].nic.phy80211p.antennaOffsetZ "0 m"
config *.connectionManager.sendDirect true
config *.connectionManager.maxInterfDist 2600m
config *.connectionManager.drawMaxIntfDist false
config *.**.nic.mac1609_4.useServiceChannel true
config *.**.nic.mac1609_4.txPower 20mW
config *.**.nic.mac1609_4.bitrate 6Mbps
config *.**.nic.phy80211p.minPowerLevel -110dBm
config *.**.nic.phy80211p.useNoiseFloor true
config *.**.nic.phy80211p.noiseFloor -98dBm
config *.**.nic.phy80211p.decider "xmldoc(\"config.xml\")"
config *.**.nic.phy80211p.analogueModels "xmldoc(\"config.xml\")"
config *.**.nic.phy80211p.usePropagationDelay true
config *.**.nic.phy80211p.antenna "xmldoc(\"antenna.xml\", \"/root/Antenna[@id='monopole']\")"
config *.node[*].nic.phy80211p.antennaOffsetY "0 m"
config *.node[*].nic.phy80211p.antennaOffsetZ "1.895 m"
config *.node[*].applType "\"VehicleControlApp\""
config *.node[*].appl.headerLength "80 bit"
config *.node[*].appl.sendBeacons false
config *.node[*].appl.dataOnSch true
config *.node[*].appl.beaconInterval 1s
config *.node[*].veinsmobility.x 0
config *.node[*].veinsmobility.y 0
config *.node[*].veinsmobility.z 0
config *.node[*].veinsmobility.setHostSpeed false
config *.node[*0].veinsmobility.accidentCount 0

vector 0 TestNetwork.rsu[0].nic.phy80211p RadioState ETV
vector 1 TestNetwork.rsu[0].nic.phy80211p RadioChannel ETV
vector 2 TestNetwork.node[0].nic.phy80211p RadioState ETV
vector 3 TestNetwork.node[0].nic.phy80211p RadioChannel ETV
vector 4 TestNetwork.manager posx ETV
vector 5 TestNetwork.manager posy ETV
vector 6 TestNetwork.node[1].nic.phy80211p RadioState ETV
vector 7 TestNetwork.node[1].nic.phy80211p RadioChannel ETV
vector 8 TestNetwork.manager posx ETV
vector 9 TestNetwork.manager posy ETV
vector 10 TestNetwork.node[2].nic.phy80211p RadioState ETV
vector 11 TestNetwork.node[2].nic.phy80211p RadioChannel ETV
vector 12 TestNetwork.manager posx ETV
vector 13 TestNetwork.manager posy ETV
vector 14 TestNetwork.manager speed ETV
vector 15 TestNetwork.manager speed ETV
vector 16 TestNetwork.manager speed ETV
vector 17 TestNetwork.manager acceleration ETV
vector 18 TestNetwork.manager co2emission ETV
vector 19 TestNetwork.manager acceleration ETV
vector 20 TestNetwork.manager co2emission ETV
vector 21 TestNetwork.manager acceleration ETV
vector 22 TestNetwork.manager co2emission ETV
4	3900 362 21 4360 1 18 18 20.2 95.041413480339 678.77818521147 35010.220150297
5	4262 400 21 4360 1 18 18 38.5 129.8 1728.7582676031 188028.65754543
8	4662 438 21 4360 1 18 18 23.4 109.5 1053.3754848004 80313.397685405
9	5100 359 21 4360 1 18 18 120.2 150.00634125026 2271.3795649547 287586.88366809
12	5459 349 21 4360 1 18 18 130.2 220.2 3612.2811150245 740866.03320101
13	5808 398 21 4360 1 18 18 240.5 323.4 5284.2472028266 1570353.8673494
14	6206 452 274 4360 2 18 17 2.208746208949 12.149583 155.09141348034 1556.357385076
15	6658 465 274 4360 2 18 17 0.33016047173778 12.185039099766 108.05634125026 913.77316190527
16	7123 414 274 4360 2 18 17 2.0465621652314 15.366507 170.23 1959.4845201001
17	7537 438 530 4360 3 18 16 -3.0179054680863 2.4320730425417 9.940836791051 39.316416481586
18	7975 399 530 4360 3 18 16 0.973 7.7972479265789 55.596873400318 280.78672998893
19	8374 441 530 4360 3 18 16 -3.9819872333901 2.5282658430282 8.2545394291907 76.241972464869
20	8815 399 530 4360 3 18 16 0.973 6.5223431024462 55.248366888241 254.37485860923
21	9214 348 530 4360 3 18 16 -4.5 2.6 8.2835728347685 81.934325175352
22	9562 398 530 4360 3 18 16 0.973 10.309350617457 72.702432831244 513.67105336179

