version 3
run General-0-20250427-13:13:41-9688
attr configname General
attr datetime 20250427-13:13:41
attr datetimef 20250427-131341
attr experiment General
attr inifile omnetpp.ini
attr iterationvars ""
attr iterationvarsd ""
attr iterationvarsf ""
attr measurement ""
attr network TestNetwork
attr processid 9688
attr repetition 0
attr replication #0
attr resultdir results
attr runnumber 0
attr seedset 0
config image-path ../../../../samples/inet4.5/images;../../../../samples/veins/images
config cmdenv-express-mode true
config cmdenv-autoflush true
config cmdenv-status-frequency 1s
config **.cmdenv-log-level info
config ned-path .
config image-path ../../images
config network TestNetwork
config debug-on-errors true
config print-undisposed true
config sim-time-limit 200s
config **.scalar-recording true
config **.vector-recording true
config *.playgroundSizeX 2500m
config *.playgroundSizeY 2500m
config *.playgroundSizeZ 50m
config *.annotations.draw true
config *.manager.updateInterval 1s
config *.manager.host "\"localhost\""
config *.manager.port 9999
config *.manager.autoShutdown true
config *.manager.launchConfig "xmldoc(\"grid3x3.launchd.xml\")"
config *.rsu[0].mobility.x 100
config *.rsu[0].mobility.y 100
config *.rsu[0].mobility.z 3
config *.rsu[*].applType "\"RSUControlApp\""
config *.rsu[*].appl.headerLength "80 bit"
config *.rsu[*].appl.sendBeacons false
config *.rsu[*].appl.dataOnSch false
config *.rsu[*].nic.phy80211p.antennaOffsetZ "0 m"
config *.connectionManager.sendDirect true
config *.connectionManager.maxInterfDist 2600m
config *.connectionManager.drawMaxIntfDist false
config *.**.nic.mac1609_4.useServiceChannel true
config *.**.nic.mac1609_4.txPower 20mW
config *.**.nic.mac1609_4.bitrate 6Mbps
config *.**.nic.phy80211p.minPowerLevel -110dBm
config *.**.nic.phy80211p.useNoiseFloor true
config *.**.nic.phy80211p.noiseFloor -98dBm
config *.**.nic.phy80211p.decider "xmldoc(\"config.xml\")"
config *.**.nic.phy80211p.analogueModels "xmldoc(\"config.xml\")"
config *.**.nic.phy80211p.usePropagationDelay true
config *.**.nic.phy80211p.antenna "xmldoc(\"antenna.xml\", \"/root/Antenna[@id='monopole']\")"
config *.node[*].nic.phy80211p.antennaOffsetY "0 m"
config *.node[*].nic.phy80211p.antennaOffsetZ "1.895 m"
config *.node[*].applType "\"VehicleControlApp\""
config *.node[*].appl.headerLength "80 bit"
config *.node[*].appl.sendBeacons false
config *.node[*].appl.dataOnSch true
config *.node[*].appl.beaconInterval 1s
config *.node[*].veinsmobility.x 0
config *.node[*].veinsmobility.y 0
config *.node[*].veinsmobility.z 0
config *.node[*].veinsmobility.setHostSpeed false
config *.node[*0].veinsmobility.accidentCount 0

vector 0 TestNetwork.rsu[0].nic.phy80211p RadioState ETV
vector 1 TestNetwork.rsu[0].nic.phy80211p RadioChannel ETV
vector 2 TestNetwork.node[0].nic.phy80211p RadioState ETV
vector 3 TestNetwork.node[0].nic.phy80211p RadioChannel ETV
vector 4 TestNetwork.manager posx ETV
vector 5 TestNetwork.manager posy ETV
vector 6 TestNetwork.node[1].nic.phy80211p RadioState ETV
vector 7 TestNetwork.node[1].nic.phy80211p RadioChannel ETV
vector 8 TestNetwork.manager posx ETV
vector 9 TestNetwork.manager posy ETV
vector 10 TestNetwork.node[2].nic.phy80211p RadioState ETV
vector 11 TestNetwork.node[2].nic.phy80211p RadioChannel ETV
vector 12 TestNetwork.manager posx ETV
vector 13 TestNetwork.manager posy ETV
vector 14 TestNetwork.manager speed ETV
vector 15 TestNetwork.manager speed ETV
vector 16 TestNetwork.manager speed ETV
vector 17 TestNetwork.manager acceleration ETV
vector 18 TestNetwork.manager co2emission ETV
vector 19 TestNetwork.manager acceleration ETV
vector 20 TestNetwork.manager co2emission ETV
vector 21 TestNetwork.manager acceleration ETV
vector 22 TestNetwork.manager co2emission ETV
4	21	1	20.2
4	274	2	20.2
4	530	3	23.4
4	777	4	23.4
4	1025	5	23.4
4	1271	6	23.4
4	1527	7	23.4
4	1783	8	23.4
4	2039	9	23.4
4	2285	10	23.4
4	2531	11	25.309934936165
4	2787	12	31.680183064399
4	3043	13	38.703674245131
4	3299	14	47.973207488415
4	3555	15	58.835694036344
4	3811	16	70.742247480339
4	4086	17	81.944764697746
4	4360	18	93.674210219265
4	4635	19	104.29468475643
4	4909	20	110.7813679416
4	5183	21	115.50324245549
4	5457	22	119.36029641207
4	5724	23	123.4
4	5998	24	123.4
4	6281	25	123.4
4	6554	26	123.4
4	6810	27	123.4
4	7066	28	123.4
4	7323	29	123.4
4	7580	30	123.4
4	7837	31	124.07491353332
4	8094	32	129.01473312957
4	8351	33	135.76623653233
5	21	1	38.5
5	274	2	40.708746208949
5	530	3	44.901634108718
5	777	4	51.051539865695
5	1025	5	59.633518665214
5	1271	6	70.51898942634
5	1527	7	82.571882835319
5	1783	8	94.389349740039
5	2039	9	105.74601316224
5	2285	10	114.08477111636
5	2531	11	121.78322489361
5	2787	12	126.06859758063
5	3043	13	129.8
5	3299	14	129.8
5	3555	15	129.8
5	3811	16	129.8
5	4086	17	129.8
5	4360	18	129.8
5	4635	19	129.8
5	4909	20	129.8
5	5183	21	129.9290346365
5	5457	22	132.13382735344
5	5724	23	137.27975749184
5	5998	24	144.98525329171
5	6281	25	154.71066082264
5	6554	26	165.89817922381
5	6810	27	176.91235891943
5	7066	28	188.71963239538
5	7323	29	200.75685083739
5	7580	30	212.21257263209
5	7837	31	219.32439473325
5	8094	32	225.16883987774
5	8351	33	226.6
8	21	1	109.5
8	274	2	108.15713878986
8	530	3	105.38508547083
8	777	4	100.3016232746
8	1025	5	92.689895235328
8	1271	6	83.610119190579
8	1527	7	73.011069337814
8	1783	8	60.826030238048
8	2039	9	48.845114202041
8	2285	10	40.254603643703
8	2531	11	35.646080318755
8	2787	12	33.64007052669
8	3043	13	33.312540815683
8	3299	14	30.789802680793
8	3555	15	26.773846650164
8	3811	16	23.832464425485
8	4086	17	23.4
8	4360	18	23.4
8	4635	19	23.4
8	4909	20	23.4
8	5183	21	23.4
8	5457	22	23.4
8	5724	23	23.4
8	5998	24	23.4
8	6281	25	23.709328317035
8	6554	26	26.902058089962
8	6810	27	33.153575121305
8	7066	28	41.611139774565
8	7323	29	52.428097721912
8	7580	30	64.848167625623
8	7837	31	76.090938502958
8	8094	32	87.830151284236
8	8351	33	99.051875490137
9	21	1	120.2
9	274	2	120.2
9	530	3	123.4
9	777	4	123.4
9	1025	5	123.4
9	1271	6	123.4
9	1527	7	123.4
9	1783	8	123.4
9	2039	9	123.4
9	2285	10	123.4
9	2531	11	123.4
9	2787	12	123.6544476347
9	3043	13	123.70180132785
9	3299	14	124.05959309945
9	3555	15	126.1756920099
9	3811	16	132.3727490216
9	4086	17	140.40894061093
9	4360	18	150.00634125026
9	4635	19	161.13335544453
9	4909	20	173.55317606658
9	5183	21	185.81682055605
9	5457	22	197.99659272126
9	5724	23	209.90347705632
9	5998	24	217.81729022755
9	6281	25	221.47599706321
9	6554	26	225.50604885642
9	6810	27	226.6
9	7066	28	226.6
9	7323	29	226.6
9	7580	30	226.6
9	7837	31	226.6
9	8094	32	226.6
9	8351	33	226.6
12	21	1	220.2
12	274	2	220.2
12	530	3	220.2
12	777	4	220.2
12	1025	5	220.2
12	1271	6	220.2
12	1527	7	220.2
12	1783	8	220.2
12	2039	9	220.2
12	2285	10	220.2
12	2531	11	218.49687576956
12	2787	12	212.11492624124
12	3043	13	203.65979659316
12	3299	14	193.50955271487
12	3555	15	181.51626884752
12	3811	16	167.2854756109
12	4086	17	152.16065322025
12	4360	18	139.4647567786
12	4635	19	130.39580347561
12	4909	20	126.70837794064
12	5183	21	126.6
12	5457	22	126.6
12	5724	23	126.6
12	5998	24	126.6
12	6281	25	126.6
12	6554	26	126.6
12	6810	27	126.6
12	7066	28	126.6
12	7323	29	126.6
12	7580	30	126.6
12	7837	31	126.6
12	8094	32	126.6
12	8351	33	126.6
13	21	1	240.5
13	274	2	242.54656216523
13	530	3	246.5680823727
13	777	4	252.13064372397
13	1025	5	259.10380848183
13	1271	6	267.72095675969
13	1527	7	278.3297600643
13	1783	8	290.41015921128
13	2039	9	304.25511519427
13	2285	10	314.10160499054
13	2531	11	321.48580284585
13	2787	12	323.4
13	3043	13	323.4
13	3299	14	323.4
13	3555	15	323.4
13	3811	16	323.4
13	4086	17	323.4
13	4360	18	323.4
13	4635	19	323.4
13	4909	20	319.00693615711
13	5183	21	312.91491082524
13	5457	22	304.33172149171
13	5724	23	293.94405580684
13	5998	24	281.25601034653
13	6281	25	266.82318647136
13	6554	26	252.77701924049
13	6810	27	243.23085200962
13	7066	28	237.51994350674
13	7323	29	236.21009713582
13	7580	30	235.7016588491
13	7837	31	235.58188813723
13	8094	32	233.58379784983
13	8351	33	229.54795246493
14	274	2	2.208746208949
14	530	3	4.1928878997685
14	777	4	6.1499057569774
14	1025	5	8.5819787995191
14	1271	6	10.885470761126
14	1527	7	12.052893408979
14	1783	8	11.817466904721
14	2039	9	11.356663422202
14	2285	10	8.3387579541158
14	2531	11	8.0718549000313
14	2787	12	8.0363796599656
14	3043	13	7.0606685687769
14	3299	14	9.2695332432845
14	3555	15	10.862486547928
14	3811	16	11.906553443996
14	4086	17	11.202517217406
14	4360	18	11.729445521519
14	4635	19	10.62047453717
14	4909	20	6.4866831851644
14	5183	21	4.7309018923461
14	5457	22	4.6915801639228
14	5724	23	5.305907493972
14	5998	24	7.7054957998709
14	6281	25	9.7254075309287
14	6554	26	11.187518401173
14	6810	27	11.014179695616
14	7066	28	11.807273475951
14	7323	29	12.037218442009
14	7580	30	11.455721794706
14	7837	31	7.1590396549533
14	8094	32	7.9521869926694
14	8351	33	6.9924372526099
15	274	2	1.3428612101357
15	530	3	2.7720533190295
15	777	4	5.0834621962393
15	1025	5	7.6117280392675
15	1271	6	9.0797760447487
15	1527	7	10.599049852765
15	1783	8	12.185039099766
15	2039	9	11.980916036008
15	2285	10	8.590510558338
15	2531	11	4.6085233249479
15	2787	12	2.0201457717699
15	3043	13	0.33016047173778
15	3299	14	2.5473965277536
15	3555	15	4.5841727887154
15	3811	16	7.0557012890805
15	4086	17	8.0674440806305
15	4360	18	9.5974006393265
15	4635	19	11.12701419427
15	4909	20	12.419820622046
15	5183	21	12.263644489477
15	5457	22	12.179772165202
15	5724	23	11.906884335069
15	5998	24	7.9138131712268
15	6281	25	3.6846567283004
15	6554	26	5.4472701387798
15	6810	27	6.4243580266739
15	7066	28	8.4575646532605
15	7323	29	10.816957947346
15	7580	30	12.420069903712
15	7837	31	11.242770877335
15	8094	32	11.739212781278
15	8351	33	11.221724205901
16	274	2	2.0465621652314
16	530	3	4.0215202074731
16	777	4	5.5625613512704
16	1025	5	6.9731647578534
16	1271	6	8.617148277862
16	1527	7	10.608803304611
16	1783	8	12.080399146979
16	2039	9	13.84495598299
16	2285	10	9.8464897962753
16	2531	11	7.7271777480631
16	2787	12	6.9862910201563
16	3043	13	8.4551296480722
16	3299	14	10.150243878297
16	3555	15	11.993283867349
16	3811	16	14.230793236617
16	4086	17	15.124822390651
16	4360	18	12.695896441648
16	4635	19	9.0689533029875
16	4909	20	6.4741487824575
16	5183	21	6.0967438679173
16	5457	22	8.5831893335313
16	5724	23	10.387665684869
16	5998	24	12.68804546031
16	6281	25	14.432823875172
16	6554	26	14.046167230867
16	6810	27	9.5461672308671
16	7066	28	5.7109085028808
16	7323	29	1.3098463709216
16	7580	30	0.50843828671872
16	7837	31	0.11977071186752
16	8094	32	2.0111878990637
16	8351	33	4.0649500391189
17	530	3	1.9841416908195
17	777	4	1.9570178572088
17	1025	5	2.4320730425417
17	1271	6	2.3034919616068
17	1527	7	1.1674226478528
17	1783	8	-0.23542650425806
17	2039	9	-0.46080348251853
17	2285	10	-3.0179054680863
17	2531	11	-0.26690305408453
17	2787	12	-0.035475240065717
17	3043	13	-0.97571109118871
17	3299	14	2.2088646745076
17	3555	15	1.5929533046437
17	3811	16	1.0440668960674
17	4086	17	-0.70403622658923
17	4360	18	0.52692830411252
17	4635	19	-1.1089709843493
17	4909	20	-4.1337913520052
17	5183	21	-1.7557812928183
17	5457	22	-0.039321728423238
17	5724	23	0.61432733004913
17	5998	24	2.3995883058989
17	6281	25	2.0199117310578
17	6554	26	1.4621108702446
17	6810	27	-0.1733387055574
17	7066	28	0.79309378033504
17	7323	29	0.22994496605825
17	7580	30	-0.58149664730299
17	7837	31	-4.2966821397529
17	8094	32	0.79314733771607
17	8351	33	-0.95974974005949
18	530	3	3.3240217372676
18	777	4	4.3287081351975
18	1025	5	6.6125360195502
18	1271	6	7.7972479265789
18	1527	7	5.2442502513896
18	1783	8	1.1620341530737
18	2039	9	0.973
18	2285	10	0.973
18	2531	11	0.973
18	2787	12	1.4769138448879
18	3043	13	0.973
18	3299	14	6.5652498296059
18	3555	15	5.9225362914317
18	3811	16	4.8362310024576
18	4086	17	0.973
18	4360	18	3.3144225801582
18	4635	19	0.973
18	4909	20	0.973
18	5183	21	0.973
18	5457	22	1.3014014951502
18	5724	23	2.1653110279836
18	5998	24	5.9800717375543
18	6281	25	6.3984456344792
18	6554	26	5.7211696715886
18	6810	27	1.3046431663578
18	7066	28	4.0884354867682
18	7323	29	2.5188594017396
18	7580	30	0.973
18	7837	31	0.973
18	8094	32	3.0601171804163
18	8351	33	0.973
19	530	3	1.4291921088938
19	777	4	2.3114088772098
19	1025	5	2.5282658430282
19	1271	6	1.4680480054813
19	1527	7	1.5192738080164
19	1783	8	1.5859892470006
19	2039	9	-0.20412306375801
19	2285	10	-3.3904054776697
19	2531	11	-3.9819872333901
19	2787	12	-2.588377553178
19	3043	13	-1.6899853000322
19	3299	14	2.2172360560158
19	3555	15	2.0367762609618
19	3811	16	2.4715285003651
19	4086	17	1.01174279155
19	4360	18	1.529956558696
19	4635	19	1.5296135549434
19	4909	20	1.2928064277764
19	5183	21	-0.15617613256909
19	5457	22	-0.083872324274854
19	5724	23	-0.27288783013355
19	5998	24	-3.9930711638419
19	6281	25	-4.2291564429264
19	6554	26	1.7626134104794
19	6810	27	0.97708788789409
19	7066	28	2.0332066265866
19	7323	29	2.3593932940857
19	7580	30	1.6031119563653
19	7837	31	-1.1772990263766
19	8094	32	0.49644190394319
19	8351	33	-0.5174885753775
20	530	3	2.2004846478233
20	777	4	4.1991018184651
20	1025	5	6.1558476512092
20	1271	6	4.8295801928684
20	1527	7	5.6120822832986
20	1783	8	6.5223431024462
20	2039	9	1.2574446177271
20	2285	10	0.973
20	2531	11	0.973
20	2787	12	0.973
20	3043	13	0.973
20	3299	14	2.5956247331742
20	3555	15	3.5902409600999
20	3811	16	5.6854618325733
20	4086	17	3.5147628338568
20	4360	18	5.1933922146988
20	4635	19	5.8758597070924
20	4909	20	5.7557080617408
20	5183	21	1.410398661775
20	5457	22	1.6182726801261
20	5724	23	0.973
20	5998	24	0.973
20	6281	25	0.973
20	6554	26	3.7016529842622
20	6810	27	2.9572012966552
20	7066	28	5.7181099813051
20	7323	29	7.899401254031
20	7580	30	6.6846263535252
20	7837	31	0.973
20	8094	32	3.2302562072474
20	8351	33	0.973
21	530	3	1.9749580422416
21	777	4	1.5410411437973
21	1025	5	1.410603406583
21	1271	6	1.6439835200086
21	1527	7	1.9916550267488
21	1783	8	1.471595842368
21	2039	9	1.7645568360109
21	2285	10	-3.9984661867144
21	2531	11	-2.1193120482122
21	2787	12	-0.74088672790676
21	3043	13	1.4688386279158
21	3299	14	1.6951142302249
21	3555	15	1.8430399890523
21	3811	16	2.2375093692681
21	4086	17	0.89402915403366
21	4360	18	-2.4289259490027
21	4635	19	-3.6269431386609
21	4909	20	-2.59480452053
21	5183	21	-0.37740491454024
21	5457	22	2.4864454656141
21	5724	23	1.8044763513375
21	5998	24	2.3003797754413
21	6281	25	1.7447784148622
21	6554	26	-0.38665664430518
21	6810	27	-4.5
21	7066	28	-3.8352587279864
21	7323	29	-4.4010621319592
21	7580	30	-0.80140808420284
21	7837	31	-0.38866757485119
21	8094	32	1.8914171871962
21	8351	33	2.0537621400552
22	530	3	3.2241087379109
22	777	4	3.4601227135953
22	1025	5	3.8482735654459
22	1271	6	4.9989159555905
22	1527	7	6.8241751695152
22	1783	8	6.1399883509121
22	2039	9	7.9107204703212
22	2285	10	0.973
22	2531	11	0.973
22	2787	12	0.973
22	3043	13	4.5667461922844
22	3299	14	5.8428566290671
22	3555	15	7.1750073691209
22	3811	16	9.7365348220199
22	4086	17	5.4180582464742
22	4360	18	0.973
22	4635	19	0.973
22	4909	20	0.973
22	5183	21	0.973
22	5457	22	6.7258006587071
22	5724	23	6.2320209799287
22	5998	24	8.9449096660096
22	6281	25	8.1528530503605
22	6554	26	0.973
22	6810	27	0.973
22	7066	28	0.973
22	7323	29	0.973
22	7580	30	0.973
22	7837	31	0.973
22	8094	32	2.1245340886169
22	8351	33	3.3242722989656
4	8599	34	144.25521078395
4	8845	35	154.28653044948
4	9101	36	166.20354874918
5	8599	34	226.6
5	8845	35	226.6
5	9101	36	226.6
8	8599	34	108.13499788227
8	8845	35	112.93682511606
8	9101	36	119.75499873616
9	8599	34	226.6
9	8845	35	226.6
9	9101	36	226.6
12	8599	34	126.6
12	8845	35	126.6
12	9101	36	126.6
13	8599	34	223.18103104595
13	8845	35	214.70155573724
13	9101	36	203.56493443684
14	8599	34	8.4889742516195
14	8845	35	10.031319665534
14	9101	36	11.917018299698
15	8599	34	9.0831223921308
15	8845	35	4.8018272337893
15	9101	36	6.8553490917587
16	8599	34	6.4128367176721
16	8845	35	8.5406253710365
16	9101	36	11.137353673505
17	8599	34	1.4965369990095
17	8845	35	1.5423454139149
17	9101	36	1.8856986341639
18	8599	34	4.637699250254
18	8845	35	5.4158545761613
18	9101	36	7.2569480446213
19	8599	34	-2.1386018137699
19	8845	35	-4.2812951583415
19	9101	36	2.0535218579695
20	8599	34	0.973
20	8845	35	0.973
20	9101	36	4.8631678107354
21	8599	34	2.3478866785532
21	8845	35	2.1277886533644
21	9101	36	2.5967283024685
22	8599	34	5.0723617712384
22	8845	35	5.9591569158434
22	9101	36	8.7447701781922
vector 23 TestNetwork.node[3].nic.phy80211p RadioState ETV
vector 24 TestNetwork.node[3].nic.phy80211p RadioChannel ETV
vector 25 TestNetwork.manager posx ETV
vector 26 TestNetwork.manager posy ETV
vector 27 TestNetwork.node[4].nic.phy80211p RadioState ETV
vector 28 TestNetwork.node[4].nic.phy80211p RadioChannel ETV
vector 29 TestNetwork.manager posx ETV
vector 30 TestNetwork.manager posy ETV
vector 31 TestNetwork.node[5].nic.phy80211p RadioState ETV
vector 32 TestNetwork.node[5].nic.phy80211p RadioChannel ETV
vector 33 TestNetwork.manager posx ETV
vector 34 TestNetwork.manager posy ETV
4	9357	37	177.58437025291
5	9357	37	226.6
8	9357	37	128.67140953772
9	9357	37	226.6
12	9357	37	126.6
13	9357	37	190.59215079704
14	9357	37	11.380821503731
15	9357	37	8.9807118409935
16	9357	37	12.972783639792
17	9357	37	-0.53619679596741
18	9357	37	0.973
19	9357	37	2.1253627492348
20	9357	37	6.2101738565394
21	9357	37	1.8354299662868
22	9357	37	7.6758546781211
25	9357	37	20.2
26	9357	37	38.5
29	9357	37	109.5
30	9357	37	120.2
33	9357	37	220.2
34	9357	37	240.5

