version 3
run General-0-20250415-08:40:15-1228
attr configname General
attr datetime 20250415-08:40:15
attr datetimef 20250415-084015
attr experiment General
attr inifile omnetpp.ini
attr iterationvars ""
attr iterationvarsd ""
attr iterationvarsf ""
attr measurement ""
attr network RSUExampleScenario
attr processid 1228
attr repetition 0
attr replication #0
attr resultdir results
attr runnumber 0
attr seedset 0
config image-path ../../../../samples/inet4.5/images;../../../../samples/veins/images
config cmdenv-express-mode true
config cmdenv-autoflush true
config cmdenv-status-frequency 0.1s
config **.cmdenv-log-level info
config ned-path .
config image-path ../../images
config network RSUExampleScenario
config debug-on-errors true
config print-undisposed true
config sim-time-limit 20000s
config **.scalar-recording true
config **.vector-recording true
config *.playgroundSizeX 2500m
config *.playgroundSizeY 2500m
config *.playgroundSizeZ 50m
config *.annotations.draw true
config *.manager.updateInterval 0.1s
config *.manager.host "\"localhost\""
config *.manager.port 9999
config *.manager.autoShutdown true
config *.manager.launchConfig "xmldoc(\"grid3x3.launchd.xml\")"
config *.tls[*].mobility.x 0
config *.tls[*].mobility.y 0
config *.tls[*].mobility.z 3
config *.rsu[0].mobility.x 300
config *.rsu[0].mobility.y 300
config *.rsu[0].mobility.z 3
config *.rsu[*].applType "\"TraCIDemoRSU11p\""
config *.rsu[*].appl.headerLength "80 bit"
config *.rsu[*].appl.sendBeacons false
config *.rsu[*].appl.dataOnSch false
config *.rsu[*].nic.phy80211p.antennaOffsetZ "0 m"
config *.connectionManager.sendDirect true
config *.connectionManager.maxInterfDist 2600m
config *.connectionManager.drawMaxIntfDist false
config *.**.nic.mac1609_4.useServiceChannel false
config *.**.nic.mac1609_4.txPower 20mW
config *.**.nic.mac1609_4.bitrate 6Mbps
config *.**.nic.phy80211p.minPowerLevel -110dBm
config *.**.nic.phy80211p.useNoiseFloor true
config *.**.nic.phy80211p.noiseFloor -98dBm
config *.**.nic.phy80211p.decider "xmldoc(\"config.xml\")"
config *.**.nic.phy80211p.analogueModels "xmldoc(\"config.xml\")"
config *.**.nic.phy80211p.usePropagationDelay true
config *.**.nic.phy80211p.antenna "xmldoc(\"antenna.xml\", \"/root/Antenna[@id='monopole']\")"
config *.node[*].nic.phy80211p.antennaOffsetY "0 m"
config *.node[*].nic.phy80211p.antennaOffsetZ "1.895 m"
config *.node[*].applType "\"TraCIDemo11p\""
config *.node[*].appl.headerLength "80 bit"
config *.node[*].appl.sendBeacons false
config *.node[*].appl.dataOnSch true
config *.node[*].appl.beaconInterval 0.1s
config *.node[*].veinsmobility.x 0
config *.node[*].veinsmobility.y 0
config *.node[*].veinsmobility.z 0
config *.node[*].veinsmobility.setHostSpeed false
config *.node[*0].veinsmobility.accidentCount 0

vector 0 RSUExampleScenario.rsu[0].nic.phy80211p RadioState ETV
vector 1 RSUExampleScenario.rsu[0].nic.phy80211p RadioChannel ETV
vector 2 RSUExampleScenario.node[0].nic.phy80211p RadioState ETV
vector 3 RSUExampleScenario.node[0].nic.phy80211p RadioChannel ETV
vector 4 RSUExampleScenario.manager posx ETV
vector 5 RSUExampleScenario.manager posy ETV
vector 6 RSUExampleScenario.node[1].nic.phy80211p RadioState ETV
vector 7 RSUExampleScenario.node[1].nic.phy80211p RadioChannel ETV
vector 8 RSUExampleScenario.manager posx ETV
vector 9 RSUExampleScenario.manager posy ETV
vector 10 RSUExampleScenario.node[2].nic.phy80211p RadioState ETV
vector 11 RSUExampleScenario.node[2].nic.phy80211p RadioChannel ETV
vector 12 RSUExampleScenario.manager posx ETV
vector 13 RSUExampleScenario.manager posy ETV
vector 14 RSUExampleScenario.manager speed ETV
vector 15 RSUExampleScenario.manager speed ETV
vector 16 RSUExampleScenario.manager speed ETV
vector 17 RSUExampleScenario.manager acceleration ETV
vector 18 RSUExampleScenario.manager co2emission ETV
vector 19 RSUExampleScenario.manager acceleration ETV
vector 20 RSUExampleScenario.manager co2emission ETV
vector 21 RSUExampleScenario.manager acceleration ETV
vector 22 RSUExampleScenario.manager co2emission ETV
vector 23 RSUExampleScenario.node[3].nic.phy80211p RadioState ETV
vector 24 RSUExampleScenario.node[3].nic.phy80211p RadioChannel ETV
vector 25 RSUExampleScenario.manager posx ETV
vector 26 RSUExampleScenario.manager posy ETV
vector 27 RSUExampleScenario.node[4].nic.phy80211p RadioState ETV
vector 28 RSUExampleScenario.node[4].nic.phy80211p RadioChannel ETV
vector 29 RSUExampleScenario.manager posx ETV
vector 30 RSUExampleScenario.manager posy ETV
vector 31 RSUExampleScenario.node[5].nic.phy80211p RadioState ETV
vector 32 RSUExampleScenario.node[5].nic.phy80211p RadioChannel ETV
vector 33 RSUExampleScenario.manager posx ETV
vector 34 RSUExampleScenario.manager posy ETV
vector 35 RSUExampleScenario.manager speed ETV
vector 36 RSUExampleScenario.manager speed ETV
vector 37 RSUExampleScenario.manager speed ETV
vector 38 RSUExampleScenario.manager acceleration ETV
vector 39 RSUExampleScenario.manager co2emission ETV
vector 40 RSUExampleScenario.manager acceleration ETV
vector 41 RSUExampleScenario.manager co2emission ETV
vector 42 RSUExampleScenario.manager acceleration ETV
vector 43 RSUExampleScenario.manager co2emission ETV
vector 44 RSUExampleScenario.node[6].nic.phy80211p RadioState ETV
vector 45 RSUExampleScenario.node[6].nic.phy80211p RadioChannel ETV
vector 46 RSUExampleScenario.manager posx ETV
vector 47 RSUExampleScenario.manager posy ETV
vector 48 RSUExampleScenario.node[7].nic.phy80211p RadioState ETV
vector 49 RSUExampleScenario.node[7].nic.phy80211p RadioChannel ETV
vector 50 RSUExampleScenario.manager posx ETV
vector 51 RSUExampleScenario.manager posy ETV
vector 52 RSUExampleScenario.node[8].nic.phy80211p RadioState ETV
vector 53 RSUExampleScenario.node[8].nic.phy80211p RadioChannel ETV
vector 54 RSUExampleScenario.manager posx ETV
vector 55 RSUExampleScenario.manager posy ETV
vector 56 RSUExampleScenario.manager speed ETV
vector 57 RSUExampleScenario.manager speed ETV
vector 58 RSUExampleScenario.manager speed ETV
vector 59 RSUExampleScenario.manager acceleration ETV
vector 60 RSUExampleScenario.manager co2emission ETV
vector 61 RSUExampleScenario.manager acceleration ETV
vector 62 RSUExampleScenario.manager co2emission ETV
vector 63 RSUExampleScenario.manager acceleration ETV
vector 64 RSUExampleScenario.manager co2emission ETV
4	2	0.1	20.2
4	3	0.2	20.2
4	4	0.3	20.2
4	5	0.4	20.2
4	6	0.5	20.2
4	7	0.6	20.2
4	8	0.7	20.2
4	9	0.8	20.2
4	10	0.9	20.2
4	11	1	20.2
4	12	1.1	20.2
4	13	1.2	20.2
4	14	1.3	20.2
4	15	1.4	20.2
4	16	1.5	20.2
4	17	1.6	20.2
4	18	1.7	20.2
4	19	1.8	20.2
4	20	1.9	20.2
4	21	2	20.2
4	22	2.1	23.4
4	23	2.2	23.4
4	24	2.3	23.4
4	25	2.4	23.4
4	26	2.5	23.4
4	27	2.6	23.4
4	28	2.7	23.4
4	29	2.8	23.4
4	30	2.9	23.4
4	31	3	23.4
4	32	3.1	23.4
4	33	3.2	23.4
4	34	3.3	23.4
4	35	3.4	23.4
4	36	3.5	23.4
4	37	3.6	23.4
4	38	3.7	23.4
4	39	3.8	23.4
4	40	3.9	23.4
4	41	4	23.4
4	42	4.1	23.4
4	43	4.2	23.4
4	44	4.3	23.4
4	45	4.4	23.4
4	46	4.5	23.4
4	47	4.6	23.4
4	48	4.7	23.4
4	49	4.8	23.4
4	50	4.9	23.4
4	51	5	23.4
4	52	5.1	23.4
4	53	5.2	23.4
4	54	5.3	23.4
4	55	5.4	23.4
4	56	5.5	23.4
4	57	5.6	23.4
4	58	5.7	23.4
4	59	5.8	23.4
4	60	5.9	23.4
4	61	6	23.4
4	62	6.1	23.4
4	63	6.2	23.4
4	64	6.3	23.4
4	65	6.4	23.4
4	66	6.5	23.4
4	67	6.6	23.4
4	68	6.7	23.4
4	69	6.8	23.4
4	70	6.9	23.4
4	71	7	23.4
4	72	7.1	23.4
4	73	7.2	23.4
4	74	7.3	23.4
4	75	7.4	23.4
4	76	7.5	23.4
4	77	7.6	23.4
4	78	7.7	23.4
4	79	7.8	23.4
4	80	7.9	23.4
4	81	8	23.4
4	82	8.1	23.4
4	83	8.2	23.4
4	84	8.3	23.4
4	85	8.4	23.4
4	86	8.5	23.4
4	87	8.6	23.4
4	88	8.7	23.4
4	89	8.8	23.4
4	90	8.9	23.4
4	91	9	23.4
4	92	9.1	23.4
4	93	9.2	23.4
4	94	9.3	23.4
4	95	9.4	23.4
4	96	9.5	23.4
4	97	9.6	23.4
4	98	9.7	23.4
4	99	9.8	23.4
4	100	9.9	23.4
4	101	10	23.4
4	102	10.1	25.309934936165
4	103	10.2	25.309934936165
4	104	10.3	25.309934936165
4	105	10.4	25.309934936165
4	106	10.5	25.309934936165
4	107	10.6	25.309934936165
4	108	10.7	25.309934936165
4	109	10.8	25.309934936165
4	110	10.9	25.309934936165
4	111	11	25.309934936165
4	112	11.1	31.680183064399
4	113	11.2	31.680183064399
4	114	11.3	31.680183064399
4	115	11.4	31.680183064399
4	116	11.5	31.680183064399
4	117	11.6	31.680183064399
4	118	11.7	31.680183064399
4	119	11.8	31.680183064399
4	120	11.9	31.680183064399
4	121	12	31.680183064399
4	122	12.1	38.703674245131
4	123	12.2	38.703674245131
4	124	12.3	38.703674245131
4	125	12.4	38.703674245131
4	126	12.5	38.703674245131
4	127	12.6	38.703674245131
4	128	12.7	38.703674245131
4	129	12.8	38.703674245131
4	130	12.9	38.703674245131
4	131	13	38.703674245131
4	132	13.1	47.973207488415
4	133	13.2	47.973207488415
4	134	13.3	47.973207488415
4	135	13.4	47.973207488415
4	136	13.5	47.973207488415
4	137	13.6	47.973207488415
4	138	13.7	47.973207488415
4	139	13.8	47.973207488415
4	140	13.9	47.973207488415
4	141	14	47.973207488415
4	142	14.1	58.835694036344
4	143	14.2	58.835694036344
4	144	14.3	58.835694036344
4	145	14.4	58.835694036344
4	146	14.5	58.835694036344
4	147	14.6	58.835694036344
4	148	14.7	58.835694036344
4	149	14.8	58.835694036344
4	150	14.9	58.835694036344
4	151	15	58.835694036344
4	152	15.1	70.742247480339
4	153	15.2	70.742247480339
4	154	15.3	70.742247480339
4	155	15.4	70.742247480339
4	156	15.5	70.742247480339
4	157	15.6	70.742247480339
4	158	15.7	70.742247480339
4	159	15.8	70.742247480339
4	160	15.9	70.742247480339
4	161	16	70.742247480339
4	162	16.1	81.944764697746
4	163	16.2	81.944764697746
4	164	16.3	81.944764697746
4	165	16.4	81.944764697746
4	166	16.5	81.944764697746
4	167	16.6	81.944764697746
4	168	16.7	81.944764697746
4	169	16.8	81.944764697746
4	170	16.9	81.944764697746
4	171	17	81.944764697746
4	172	17.1	93.674210219265
4	173	17.2	93.674210219265
4	174	17.3	93.674210219265
4	175	17.4	93.674210219265
4	176	17.5	93.674210219265
4	177	17.6	93.674210219265
4	178	17.7	93.674210219265
4	179	17.8	93.674210219265
4	180	17.9	93.674210219265
4	181	18	93.674210219265
4	182	18.1	104.29468475643
4	183	18.2	104.29468475643
4	184	18.3	104.29468475643
4	185	18.4	104.29468475643
4	186	18.5	104.29468475643
4	187	18.6	104.29468475643
4	188	18.7	104.29468475643
4	189	18.8	104.29468475643
4	190	18.9	104.29468475643
4	191	19	104.29468475643
4	192	19.1	110.7813679416
4	193	19.2	110.7813679416
4	194	19.3	110.7813679416
4	195	19.4	110.7813679416
4	196	19.5	110.7813679416
4	197	19.6	110.7813679416
4	198	19.7	110.7813679416
4	199	19.8	110.7813679416
4	200	19.9	110.7813679416
4	201	20	110.7813679416
4	202	20.1	115.50324245549
4	203	20.2	115.50324245549
4	204	20.3	115.50324245549
4	205	20.4	115.50324245549
4	206	20.5	115.50324245549
4	207	20.6	115.50324245549
4	208	20.7	115.50324245549
4	209	20.8	115.50324245549
4	210	20.9	115.50324245549
4	211	21	115.50324245549
4	212	21.1	119.36029641207
4	213	21.2	119.36029641207
4	214	21.3	119.36029641207
4	215	21.4	119.36029641207
4	216	21.5	119.36029641207
4	217	21.6	119.36029641207
4	218	21.7	119.36029641207
4	219	21.8	119.36029641207
4	220	21.9	119.36029641207
4	221	22	119.36029641207
4	222	22.1	123.4
4	223	22.2	123.4
4	224	22.3	123.4
4	225	22.4	123.4
4	226	22.5	123.4
4	227	22.6	123.4
4	228	22.7	123.4
4	229	22.8	123.4
4	230	22.9	123.4
4	231	23	123.4
4	232	23.1	123.4
4	233	23.2	123.4
4	234	23.3	123.4
4	235	23.4	123.4
4	236	23.5	123.4
4	237	23.6	123.4
4	238	23.7	123.4
4	239	23.8	123.4
4	240	23.9	123.4
4	241	24	123.4
4	242	24.1	123.4
4	243	24.2	123.4
4	244	24.3	123.4
4	245	24.4	123.4
4	246	24.5	123.4
4	247	24.6	123.4
4	248	24.7	123.4
4	249	24.8	123.4
4	250	24.9	123.4
4	251	25	123.4
4	252	25.1	123.4
4	253	25.2	123.4
4	254	25.3	123.4
4	255	25.4	123.4
4	256	25.5	123.4
4	257	25.6	123.4
4	258	25.7	123.4
4	259	25.8	123.4
4	260	25.9	123.4
4	261	26	123.4
4	262	26.1	123.4
4	263	26.2	123.4
4	264	26.3	123.4
4	265	26.4	123.4
4	266	26.5	123.4
4	267	26.6	123.4
4	268	26.7	123.4
4	269	26.8	123.4
4	270	26.9	123.4
4	271	27	123.4
4	272	27.1	123.4
4	273	27.2	123.4
4	274	27.3	123.4
4	275	27.4	123.4
4	276	27.5	123.4
4	277	27.6	123.4
4	278	27.7	123.4
4	279	27.8	123.4
4	280	27.9	123.4
4	281	28	123.4
4	282	28.1	123.4
4	283	28.2	123.4
4	284	28.3	123.4
4	285	28.4	123.4
4	286	28.5	123.4
4	287	28.6	123.4
4	288	28.7	123.4
4	289	28.8	123.4
4	290	28.9	123.4
4	291	29	123.4
4	292	29.1	123.4
4	293	29.2	123.4
4	294	29.3	123.4
4	295	29.4	123.4
4	296	29.5	123.4
4	297	29.6	123.4
4	298	29.7	123.4
4	299	29.8	123.4
4	300	29.9	123.4
4	301	30	123.4
4	302	30.1	124.07491353332
4	303	30.2	124.07491353332
4	304	30.3	124.07491353332
4	305	30.4	124.07491353332
4	306	30.5	124.07491353332
4	307	30.6	124.07491353332
4	308	30.7	124.07491353332
4	309	30.8	124.07491353332
4	310	30.9	124.07491353332
4	311	31	124.07491353332
4	312	31.1	129.01473312957
4	313	31.2	129.01473312957
4	314	31.3	129.01473312957
4	315	31.4	129.01473312957
4	316	31.5	129.01473312957
4	317	31.6	129.01473312957
4	318	31.7	129.01473312957
4	319	31.8	129.01473312957
4	320	31.9	129.01473312957
4	321	32	129.01473312957
4	322	32.1	135.76623653233
4	323	32.2	135.76623653233
4	324	32.3	135.76623653233
4	325	32.4	135.76623653233
4	326	32.5	135.76623653233
4	327	32.6	135.76623653233
4	328	32.7	135.76623653233
4	329	32.8	135.76623653233
4	330	32.9	135.76623653233
4	331	33	135.76623653233
4	332	33.1	144.25521078395
4	333	33.2	144.25521078395
4	334	33.3	144.25521078395
4	335	33.4	144.25521078395
4	336	33.5	144.25521078395
4	337	33.6	144.25521078395
4	338	33.7	144.25521078395
4	339	33.8	144.25521078395
4	340	33.9	144.25521078395
4	341	34	144.25521078395
4	342	34.1	154.28653044948
4	343	34.2	154.28653044948
4	344	34.3	154.28653044948
4	345	34.4	154.28653044948
4	346	34.5	154.28653044948
4	347	34.6	154.28653044948
4	348	34.7	154.28653044948
4	349	34.8	154.28653044948
4	350	34.9	154.28653044948
4	351	35	154.28653044948
4	352	35.1	166.20354874918
4	353	35.2	166.20354874918
4	354	35.3	166.20354874918
4	355	35.4	166.20354874918
4	356	35.5	166.20354874918
4	357	35.6	166.20354874918
4	358	35.7	166.20354874918
4	359	35.8	166.20354874918
4	360	35.9	166.20354874918
4	361	36	166.20354874918
4	362	36.1	177.58437025291
4	363	36.2	177.58437025291
4	364	36.3	177.58437025291
4	365	36.4	177.58437025291
4	366	36.5	177.58437025291
4	367	36.6	177.58437025291
4	368	36.7	177.58437025291
4	369	36.8	177.58437025291
4	370	36.9	177.58437025291
4	371	37	177.58437025291
4	372	37.1	189.66328106843
4	373	37.2	189.66328106843
4	374	37.3	189.66328106843
4	375	37.4	189.66328106843
4	376	37.5	189.66328106843
4	377	37.6	189.66328106843
4	378	37.7	189.66328106843
4	379	37.8	189.66328106843
4	380	37.9	189.66328106843
4	381	38	189.66328106843
4	382	38.1	201.66858184961
4	383	38.2	201.66858184961
4	384	38.3	201.66858184961
4	385	38.4	201.66858184961
4	386	38.5	201.66858184961
4	387	38.6	201.66858184961
4	388	38.7	201.66858184961
4	389	38.8	201.66858184961
4	390	38.9	201.66858184961
4	391	39	201.66858184961
4	392	39.1	209.1738826308
4	393	39.2	209.1738826308
4	394	39.3	209.1738826308
4	395	39.4	209.1738826308
4	396	39.5	209.1738826308
4	397	39.6	209.1738826308
4	398	39.7	209.1738826308
4	399	39.8	209.1738826308
4	400	39.9	209.1738826308
4	401	40	209.1738826308
4	402	40.1	212.39436433036
4	403	40.2	212.39436433036
4	404	40.3	212.39436433036
4	405	40.4	212.39436433036
4	406	40.5	212.39436433036
4	407	40.6	212.39436433036
4	408	40.7	212.39436433036
4	409	40.8	212.39436433036
4	410	40.9	212.39436433036
4	411	41	212.39436433036
4	412	41.1	213.58397034188
4	413	41.2	213.58397034188
4	414	41.3	213.58397034188
4	415	41.4	213.58397034188
4	416	41.5	213.58397034188
4	417	41.6	213.58397034188
4	418	41.7	213.58397034188
4	419	41.8	213.58397034188
4	420	41.9	213.58397034188
4	421	42	213.58397034188
4	422	42.1	213.59282057033
4	423	42.2	213.59282057033
4	424	42.3	213.59282057033
4	425	42.4	213.59282057033
4	426	42.5	213.59282057033
4	427	42.6	213.59282057033
4	428	42.7	213.59282057033
4	429	42.8	213.59282057033
4	430	42.9	213.59282057033
4	431	43	213.59282057033
4	432	43.1	213.59677563674
4	433	43.2	213.59677563674
4	434	43.3	213.59677563674
4	435	43.4	213.59677563674
4	436	43.5	213.59677563674
4	437	43.6	213.59677563674
4	438	43.7	213.59677563674
4	439	43.8	213.59677563674
4	440	43.9	213.59677563674
4	441	44	213.59677563674
4	442	44.1	213.59842840166
4	443	44.2	213.59842840166
4	444	44.3	213.59842840166
4	445	44.4	213.59842840166
4	446	44.5	213.59842840166
4	447	44.6	213.59842840166
4	448	44.7	213.59842840166
4	449	44.8	213.59842840166
4	450	44.9	213.59842840166
4	451	45	213.59842840166
4	452	45.1	215.00161969676
4	453	45.2	215.00161969676
4	454	45.3	215.00161969676
4	455	45.4	215.00161969676
4	456	45.5	215.00161969676
4	457	45.6	215.00161969676
4	458	45.7	215.00161969676
4	459	45.8	215.00161969676
4	460	45.9	215.00161969676
4	461	46	215.00161969676
4	462	46.1	218.66787903064
4	463	46.2	218.66787903064
4	464	46.3	218.66787903064
4	465	46.4	218.66787903064
4	466	46.5	218.66787903064
4	467	46.6	218.66787903064
4	468	46.7	218.66787903064
4	469	46.8	218.66787903064
4	470	46.9	218.66787903064
4	471	47	218.66787903064
4	472	47.1	224.04367899438
4	473	47.2	224.04367899438
4	474	47.3	224.04367899438
4	475	47.4	224.04367899438
4	476	47.5	224.04367899438
4	477	47.6	224.04367899438
4	478	47.7	224.04367899438
4	479	47.8	224.04367899438
4	480	47.9	224.04367899438
4	481	48	224.04367899438
4	482	48.1	231.21229701742
4	483	48.2	231.21229701742
4	484	48.3	231.21229701742
4	485	48.4	231.21229701742
4	486	48.5	231.21229701742
4	487	48.6	231.21229701742
4	488	48.7	231.21229701742
4	489	48.8	231.21229701742
4	490	48.9	231.21229701742
4	491	49	231.21229701742
4	492	49.1	240.41202065704
4	493	49.2	240.41202065704
4	494	49.3	240.41202065704
4	495	49.4	240.41202065704
4	496	49.5	240.41202065704
4	497	49.6	240.41202065704
4	498	49.7	240.41202065704
4	499	49.8	240.41202065704
4	500	49.9	240.41202065704
4	501	50	240.41202065704
4	502	50.1	251.94074559853
4	503	50.2	251.94074559853
4	504	50.3	251.94074559853
4	505	50.4	251.94074559853
4	506	50.5	251.94074559853
4	507	50.6	251.94074559853
4	508	50.7	251.94074559853
4	509	50.8	251.94074559853
4	510	50.9	251.94074559853
4	511	51	251.94074559853
4	512	51.1	263.09523091223
4	513	51.2	263.09523091223
4	514	51.3	263.09523091223
4	515	51.4	263.09523091223
4	516	51.5	263.09523091223
4	517	51.6	263.09523091223
4	518	51.7	263.09523091223
4	519	51.8	263.09523091223
4	520	51.9	263.09523091223
4	521	52	263.09523091223
4	522	52.1	274.87769931125
4	523	52.2	274.87769931125
4	524	52.3	274.87769931125
4	525	52.4	274.87769931125
4	526	52.5	274.87769931125
4	527	52.6	274.87769931125
4	528	52.7	274.87769931125
4	529	52.8	274.87769931125
4	530	52.9	274.87769931125
4	531	53	274.87769931125
4	532	53.1	286.73992333965
4	533	53.2	286.73992333965
4	534	53.3	286.73992333965
4	535	53.4	286.73992333965
4	536	53.5	286.73992333965
4	537	53.6	286.73992333965
4	538	53.7	286.73992333965
4	539	53.8	286.73992333965
4	540	53.9	286.73992333965
4	541	54	286.73992333965
4	542	54.1	297.19111261584
4	543	54.2	297.19111261584
4	544	54.3	297.19111261584
4	545	54.4	297.19111261584
4	546	54.5	297.19111261584
4	547	54.6	297.19111261584
4	548	54.7	297.19111261584
4	549	54.8	297.19111261584
4	550	54.9	297.19111261584
4	551	55	297.19111261584
4	552	55.1	304.78587482351
4	553	55.2	304.78587482351
4	554	55.3	304.78587482351
4	555	55.4	304.78587482351
4	556	55.5	304.78587482351
4	557	55.6	304.78587482351
4	558	55.7	304.78587482351
4	559	55.8	304.78587482351
4	560	55.9	304.78587482351
4	561	56	304.78587482351
4	562	56.1	312.70810628672
4	563	56.2	312.70810628672
4	564	56.3	312.70810628672
4	565	56.4	312.70810628672
4	566	56.5	312.70810628672
4	567	56.6	312.70810628672
4	568	56.7	312.70810628672
4	569	56.8	312.70810628672
4	570	56.9	312.70810628672
4	571	57	312.70810628672
4	572	57.1	319.38263666042
4	573	57.2	319.38263666042
4	574	57.3	319.38263666042
4	575	57.4	319.38263666042
4	576	57.5	319.38263666042
4	577	57.6	319.38263666042
4	578	57.7	319.38263666042
4	579	57.8	319.38263666042
4	580	57.9	319.38263666042
4	581	58	319.38263666042
4	582	58.1	323.06534032699
4	583	58.2	323.06534032699
4	584	58.3	323.06534032699
4	585	58.4	323.06534032699
4	586	58.5	323.06534032699
4	587	58.6	323.06534032699
4	588	58.7	323.06534032699
4	589	58.8	323.06534032699
4	590	58.9	323.06534032699
4	591	59	323.06534032699
4	592	59.1	323.4
4	593	59.2	323.4
4	594	59.3	323.4
4	595	59.4	323.4
4	596	59.5	323.4
4	597	59.6	323.4
4	598	59.7	323.4
4	599	59.8	323.4
4	600	59.9	323.4
4	601	60	323.4
4	602	60.1	323.4
4	603	60.2	323.4
4	604	60.3	323.4
4	605	60.4	323.4
4	606	60.5	323.4
4	607	60.6	323.4
4	608	60.7	323.4
4	609	60.8	323.4
4	610	60.9	323.4
4	611	61	323.4
4	612	61.1	323.4
4	613	61.2	323.4
4	614	61.3	323.4
4	615	61.4	323.4
4	616	61.5	323.4
4	617	61.6	323.4
4	618	61.7	323.4
4	619	61.8	323.4
4	620	61.9	323.4
4	621	62	323.4
4	622	62.1	323.4
4	623	62.2	323.4
4	624	62.3	323.4
4	625	62.4	323.4
4	626	62.5	323.4
4	627	62.6	323.4
4	628	62.7	323.4
4	629	62.8	323.4
4	630	62.9	323.4
4	631	63	323.4
4	632	63.1	323.4
4	633	63.2	323.4
4	634	63.3	323.4
4	635	63.4	323.4
4	636	63.5	323.4
4	637	63.6	323.4
4	638	63.7	323.4
4	639	63.8	323.4
4	640	63.9	323.4
4	641	64	323.4
4	642	64.1	323.4
4	643	64.2	323.4
4	644	64.3	323.4
4	645	64.4	323.4
4	646	64.5	323.4
4	647	64.6	323.4
4	648	64.7	323.4
4	649	64.8	323.4
4	650	64.9	323.4
4	651	65	323.4
4	652	65.1	323.4
4	653	65.2	323.4
4	654	65.3	323.4
4	655	65.4	323.4
4	656	65.5	323.4
4	657	65.6	323.4
4	658	65.7	323.4
4	659	65.8	323.4
4	660	65.9	323.4
4	661	66	323.4
4	662	66.1	323.4
4	663	66.2	323.4
4	664	66.3	323.4
4	665	66.4	323.4
4	666	66.5	323.4
4	667	66.6	323.4
4	668	66.7	323.4
4	669	66.8	323.4
4	670	66.9	323.4
4	671	67	323.4
4	672	67.1	322.98298838174
4	673	67.2	322.98298838174
4	674	67.3	322.98298838174
4	675	67.4	322.98298838174
4	676	67.5	322.98298838174
4	677	67.6	322.98298838174
4	678	67.7	322.98298838174
4	679	67.8	322.98298838174
4	680	67.9	322.98298838174
4	681	68	322.98298838174
4	682	68.1	319.59008457676
4	683	68.2	319.59008457676
4	684	68.3	319.59008457676
4	685	68.4	319.59008457676
4	686	68.5	319.59008457676
4	687	68.6	319.59008457676
4	688	68.7	319.59008457676
4	689	68.8	319.59008457676
4	690	68.9	319.59008457676
4	691	69	319.59008457676
4	692	69.1	314.48185693139
4	693	69.2	314.48185693139
4	694	69.3	314.48185693139
4	695	69.4	314.48185693139
4	696	69.5	314.48185693139
4	697	69.6	314.48185693139
4	698	69.7	314.48185693139
4	699	69.8	314.48185693139
4	700	69.9	314.48185693139
4	701	70	314.48185693139
4	702	70.1	307.96979304697
4	703	70.2	307.96979304697
4	704	70.3	307.96979304697
4	705	70.4	307.96979304697
4	706	70.5	307.96979304697
4	707	70.6	307.96979304697
4	708	70.7	307.96979304697
4	709	70.8	307.96979304697
4	710	70.9	307.96979304697
4	711	71	307.96979304697
4	712	71.1	299.03872302013
4	713	71.2	299.03872302013
4	714	71.3	299.03872302013
4	715	71.4	299.03872302013
4	716	71.5	299.03872302013
4	717	71.6	299.03872302013
4	718	71.7	299.03872302013
4	719	71.8	299.03872302013
4	720	71.9	299.03872302013
4	721	72	299.03872302013
4	722	72.1	288.11098061844
4	723	72.2	288.11098061844
4	724	72.3	288.11098061844
4	725	72.4	288.11098061844
4	726	72.5	288.11098061844
4	727	72.6	288.11098061844
4	728	72.7	288.11098061844
4	729	72.8	288.11098061844
4	730	72.9	288.11098061844
4	731	73	288.11098061844
4	732	73.1	276.64270887262
4	733	73.2	276.64270887262
4	734	73.3	276.64270887262
4	735	73.4	276.64270887262
4	736	73.5	276.64270887262
4	737	73.6	276.64270887262
4	738	73.7	276.64270887262
4	739	73.8	276.64270887262
4	740	73.9	276.64270887262
4	741	74	276.64270887262
4	742	74.1	264.74375941142
4	743	74.2	264.74375941142
4	744	74.3	264.74375941142
4	745	74.4	264.74375941142
4	746	74.5	264.74375941142
4	747	74.6	264.74375941142
4	748	74.7	264.74375941142
4	749	74.8	264.74375941142
4	750	74.9	264.74375941142
4	751	75	264.74375941142
4	752	75.1	253.5773975024
4	753	75.2	253.5773975024
4	754	75.3	253.5773975024
4	755	75.4	253.5773975024
4	756	75.5	253.5773975024
4	757	75.6	253.5773975024
4	758	75.7	253.5773975024
4	759	75.8	253.5773975024
4	760	75.9	253.5773975024
4	761	76	253.5773975024
4	762	76.1	243.80839501187
4	763	76.2	243.80839501187
4	764	76.3	243.80839501187
4	765	76.4	243.80839501187
4	766	76.5	243.80839501187
4	767	76.6	243.80839501187
4	768	76.7	243.80839501187
4	769	76.8	243.80839501187
4	770	76.9	243.80839501187
4	771	77	243.80839501187
4	772	77.1	237.80727145024
4	773	77.2	237.80727145024
4	774	77.3	237.80727145024
4	775	77.4	237.80727145024
4	776	77.5	237.80727145024
4	777	77.6	237.80727145024
4	778	77.7	237.80727145024
4	779	77.8	237.80727145024
4	780	77.9	237.80727145024
4	781	78	237.80727145024
4	782	78.1	230.01225735443
4	783	78.2	230.01225735443
4	784	78.3	230.01225735443
4	785	78.4	230.01225735443
4	786	78.5	230.01225735443
4	787	78.6	230.01225735443
4	788	78.7	230.01225735443
4	789	78.8	230.01225735443
4	790	78.9	230.01225735443
4	791	79	230.01225735443
4	792	79.1	219.94030642366
4	793	79.2	219.94030642366
4	794	79.3	219.94030642366
4	795	79.4	219.94030642366
4	796	79.5	219.94030642366
4	797	79.6	219.94030642366
4	798	79.7	219.94030642366
4	799	79.8	219.94030642366
4	800	79.9	219.94030642366
4	801	80	219.94030642366
4	802	80.1	208.68731077078
4	803	80.2	208.68731077078
4	804	80.3	208.68731077078
4	805	80.4	208.68731077078
4	806	80.5	208.68731077078
4	807	80.6	208.68731077078
4	808	80.7	208.68731077078
4	809	80.8	208.68731077078
4	810	80.9	208.68731077078
4	811	81	208.68731077078
4	812	81.1	197.32801295646
4	813	81.2	197.32801295646
4	814	81.3	197.32801295646
4	815	81.4	197.32801295646
4	816	81.5	197.32801295646
4	817	81.6	197.32801295646
4	818	81.7	197.32801295646
4	819	81.8	197.32801295646
4	820	81.9	197.32801295646
4	821	82	197.32801295646
4	822	82.1	185.85536438392
4	823	82.2	185.85536438392
4	824	82.3	185.85536438392
4	825	82.4	185.85536438392
4	826	82.5	185.85536438392
4	827	82.6	185.85536438392
4	828	82.7	185.85536438392
4	829	82.8	185.85536438392
4	830	82.9	185.85536438392
4	831	83	185.85536438392
4	832	83.1	174.56292955104
4	833	83.2	174.56292955104
4	834	83.3	174.56292955104
4	835	83.4	174.56292955104
4	836	83.5	174.56292955104
4	837	83.6	174.56292955104
4	838	83.7	174.56292955104
4	839	83.8	174.56292955104
4	840	83.9	174.56292955104
4	841	84	174.56292955104
4	842	84.1	162.83721301606
4	843	84.2	162.83721301606
4	844	84.3	162.83721301606
4	845	84.4	162.83721301606
4	846	84.5	162.83721301606
4	847	84.6	162.83721301606
4	848	84.7	162.83721301606
4	849	84.8	162.83721301606
4	850	84.9	162.83721301606
4	851	85	162.83721301606
4	852	85.1	151.59657212726
4	853	85.2	151.59657212726
4	854	85.3	151.59657212726
4	855	85.4	151.59657212726
4	856	85.5	151.59657212726
4	857	85.6	151.59657212726
4	858	85.7	151.59657212726
4	859	85.8	151.59657212726
4	860	85.9	151.59657212726
4	861	86	151.59657212726
4	862	86.1	140.62625613163
4	863	86.2	140.62625613163
4	864	86.3	140.62625613163
4	865	86.4	140.62625613163
4	866	86.5	140.62625613163
4	867	86.6	140.62625613163
4	868	86.7	140.62625613163
4	869	86.8	140.62625613163
4	870	86.9	140.62625613163
4	871	87	140.62625613163
4	872	87.1	131.51254895833
4	873	87.2	131.51254895833
4	874	87.3	131.51254895833
4	875	87.4	131.51254895833
4	876	87.5	131.51254895833
4	877	87.6	131.51254895833
4	878	87.7	131.51254895833
4	879	87.8	131.51254895833
4	880	87.9	131.51254895833
4	881	88	131.51254895833
4	882	88.1	127.44639172603
4	883	88.2	127.44639172603
4	884	88.3	127.44639172603
4	885	88.4	127.44639172603
4	886	88.5	127.44639172603
4	887	88.6	127.44639172603
4	888	88.7	127.44639172603
4	889	88.8	127.44639172603
4	890	88.9	127.44639172603
4	891	89	127.44639172603
4	892	89.1	126.6
4	893	89.2	126.6
5	2	0.1	38.5
5	3	0.2	38.5
5	4	0.3	38.5
5	5	0.4	38.5
5	6	0.5	38.5
5	7	0.6	38.5
5	8	0.7	38.5
5	9	0.8	38.5
5	10	0.9	38.5
5	11	1	38.5
5	12	1.1	40.708746208949
5	13	1.2	40.708746208949
5	14	1.3	40.708746208949
5	15	1.4	40.708746208949
5	16	1.5	40.708746208949
5	17	1.6	40.708746208949
5	18	1.7	40.708746208949
5	19	1.8	40.708746208949
5	20	1.9	40.708746208949
5	21	2	40.708746208949
5	22	2.1	44.901634108718
5	23	2.2	44.901634108718
5	24	2.3	44.901634108718
5	25	2.4	44.901634108718
5	26	2.5	44.901634108718
5	27	2.6	44.901634108718
5	28	2.7	44.901634108718
5	29	2.8	44.901634108718
5	30	2.9	44.901634108718
5	31	3	44.901634108718
5	32	3.1	51.051539865695
5	33	3.2	51.051539865695
5	34	3.3	51.051539865695
5	35	3.4	51.051539865695
5	36	3.5	51.051539865695
5	37	3.6	51.051539865695
5	38	3.7	51.051539865695
5	39	3.8	51.051539865695
5	40	3.9	51.051539865695
5	41	4	51.051539865695
5	42	4.1	59.633518665214
5	43	4.2	59.633518665214
5	44	4.3	59.633518665214
5	45	4.4	59.633518665214
5	46	4.5	59.633518665214
5	47	4.6	59.633518665214
5	48	4.7	59.633518665214
5	49	4.8	59.633518665214
5	50	4.9	59.633518665214
5	51	5	59.633518665214
5	52	5.1	70.51898942634
5	53	5.2	70.51898942634
5	54	5.3	70.51898942634
5	55	5.4	70.51898942634
5	56	5.5	70.51898942634
5	57	5.6	70.51898942634
5	58	5.7	70.51898942634
5	59	5.8	70.51898942634
5	60	5.9	70.51898942634
5	61	6	70.51898942634
5	62	6.1	82.571882835319
5	63	6.2	82.571882835319
5	64	6.3	82.571882835319
5	65	6.4	82.571882835319
5	66	6.5	82.571882835319
5	67	6.6	82.571882835319
5	68	6.7	82.571882835319
5	69	6.8	82.571882835319
5	70	6.9	82.571882835319
5	71	7	82.571882835319
5	72	7.1	94.389349740039
5	73	7.2	94.389349740039
5	74	7.3	94.389349740039
5	75	7.4	94.389349740039
5	76	7.5	94.389349740039
5	77	7.6	94.389349740039
5	78	7.7	94.389349740039
5	79	7.8	94.389349740039
5	80	7.9	94.389349740039
5	81	8	94.389349740039
5	82	8.1	105.74601316224
5	83	8.2	105.74601316224
5	84	8.3	105.74601316224
5	85	8.4	105.74601316224
5	86	8.5	105.74601316224
5	87	8.6	105.74601316224
5	88	8.7	105.74601316224
5	89	8.8	105.74601316224
5	90	8.9	105.74601316224
5	91	9	105.74601316224
5	92	9.1	114.08477111636
5	93	9.2	114.08477111636
5	94	9.3	114.08477111636
5	95	9.4	114.08477111636
5	96	9.5	114.08477111636
5	97	9.6	114.08477111636
5	98	9.7	114.08477111636
5	99	9.8	114.08477111636
5	100	9.9	114.08477111636
5	101	10	114.08477111636
5	102	10.1	121.78322489361
5	103	10.2	121.78322489361
5	104	10.3	121.78322489361
5	105	10.4	121.78322489361
5	106	10.5	121.78322489361
5	107	10.6	121.78322489361
5	108	10.7	121.78322489361
5	109	10.8	121.78322489361
5	110	10.9	121.78322489361
5	111	11	121.78322489361
5	112	11.1	126.06859758063
5	113	11.2	126.06859758063
5	114	11.3	126.06859758063
5	115	11.4	126.06859758063
5	116	11.5	126.06859758063
5	117	11.6	126.06859758063
5	118	11.7	126.06859758063
5	119	11.8	126.06859758063
5	120	11.9	126.06859758063
5	121	12	126.06859758063
5	122	12.1	129.8
5	123	12.2	129.8
5	124	12.3	129.8
5	125	12.4	129.8
5	126	12.5	129.8
5	127	12.6	129.8
5	128	12.7	129.8
5	129	12.8	129.8
5	130	12.9	129.8
5	131	13	129.8
5	132	13.1	129.8
5	133	13.2	129.8
5	134	13.3	129.8
5	135	13.4	129.8
5	136	13.5	129.8
5	137	13.6	129.8
5	138	13.7	129.8
5	139	13.8	129.8
5	140	13.9	129.8
5	141	14	129.8
5	142	14.1	129.8
5	143	14.2	129.8
5	144	14.3	129.8
5	145	14.4	129.8
5	146	14.5	129.8
5	147	14.6	129.8
5	148	14.7	129.8
5	149	14.8	129.8
5	150	14.9	129.8
5	151	15	129.8
5	152	15.1	129.8
5	153	15.2	129.8
5	154	15.3	129.8
5	155	15.4	129.8
5	156	15.5	129.8
5	157	15.6	129.8
5	158	15.7	129.8
5	159	15.8	129.8
5	160	15.9	129.8
5	161	16	129.8
5	162	16.1	129.8
5	163	16.2	129.8
5	164	16.3	129.8
5	165	16.4	129.8
5	166	16.5	129.8
5	167	16.6	129.8
5	168	16.7	129.8
5	169	16.8	129.8
5	170	16.9	129.8
5	171	17	129.8
5	172	17.1	129.8
5	173	17.2	129.8
5	174	17.3	129.8
5	175	17.4	129.8
5	176	17.5	129.8
5	177	17.6	129.8
5	178	17.7	129.8
5	179	17.8	129.8
5	180	17.9	129.8
5	181	18	129.8
5	182	18.1	129.8
5	183	18.2	129.8
5	184	18.3	129.8
5	185	18.4	129.8
5	186	18.5	129.8
5	187	18.6	129.8
5	188	18.7	129.8
5	189	18.8	129.8
5	190	18.9	129.8
5	191	19	129.8
5	192	19.1	129.8
5	193	19.2	129.8
5	194	19.3	129.8
5	195	19.4	129.8
5	196	19.5	129.8
5	197	19.6	129.8
5	198	19.7	129.8
5	199	19.8	129.8
5	200	19.9	129.8
5	201	20	129.8
5	202	20.1	129.9290346365
5	203	20.2	129.9290346365
5	204	20.3	129.9290346365
5	205	20.4	129.9290346365
5	206	20.5	129.9290346365
5	207	20.6	129.9290346365
5	208	20.7	129.9290346365
5	209	20.8	129.9290346365
5	210	20.9	129.9290346365
5	211	21	129.9290346365
5	212	21.1	132.13382735344
5	213	21.2	132.13382735344
5	214	21.3	132.13382735344
5	215	21.4	132.13382735344
5	216	21.5	132.13382735344
5	217	21.6	132.13382735344
5	218	21.7	132.13382735344
5	219	21.8	132.13382735344
5	220	21.9	132.13382735344
5	221	22	132.13382735344
5	222	22.1	137.27975749184
5	223	22.2	137.27975749184
5	224	22.3	137.27975749184
5	225	22.4	137.27975749184
5	226	22.5	137.27975749184
5	227	22.6	137.27975749184
5	228	22.7	137.27975749184
5	229	22.8	137.27975749184
5	230	22.9	137.27975749184
5	231	23	137.27975749184
5	232	23.1	144.98525329171
5	233	23.2	144.98525329171
5	234	23.3	144.98525329171
5	235	23.4	144.98525329171
5	236	23.5	144.98525329171
5	237	23.6	144.98525329171
5	238	23.7	144.98525329171
5	239	23.8	144.98525329171
5	240	23.9	144.98525329171
5	241	24	144.98525329171
5	242	24.1	154.71066082264
5	243	24.2	154.71066082264
5	244	24.3	154.71066082264
5	245	24.4	154.71066082264
5	246	24.5	154.71066082264
5	247	24.6	154.71066082264
5	248	24.7	154.71066082264
5	249	24.8	154.71066082264
5	250	24.9	154.71066082264
5	251	25	154.71066082264
5	252	25.1	165.89817922381
5	253	25.2	165.89817922381
5	254	25.3	165.89817922381
5	255	25.4	165.89817922381
5	256	25.5	165.89817922381
5	257	25.6	165.89817922381
5	258	25.7	165.89817922381
5	259	25.8	165.89817922381
5	260	25.9	165.89817922381
5	261	26	165.89817922381
5	262	26.1	176.91235891943
5	263	26.2	176.91235891943
5	264	26.3	176.91235891943
5	265	26.4	176.91235891943
5	266	26.5	176.91235891943
5	267	26.6	176.91235891943
5	268	26.7	176.91235891943
5	269	26.8	176.91235891943
5	270	26.9	176.91235891943
5	271	27	176.91235891943
5	272	27.1	188.71963239538
5	273	27.2	188.71963239538
5	274	27.3	188.71963239538
5	275	27.4	188.71963239538
5	276	27.5	188.71963239538
5	277	27.6	188.71963239538
5	278	27.7	188.71963239538
5	279	27.8	188.71963239538
5	280	27.9	188.71963239538
5	281	28	188.71963239538
5	282	28.1	200.75685083739
5	283	28.2	200.75685083739
5	284	28.3	200.75685083739
5	285	28.4	200.75685083739
5	286	28.5	200.75685083739
5	287	28.6	200.75685083739
5	288	28.7	200.75685083739
5	289	28.8	200.75685083739
5	290	28.9	200.75685083739
5	291	29	200.75685083739
5	292	29.1	212.21257263209
5	293	29.2	212.21257263209
5	294	29.3	212.21257263209
5	295	29.4	212.21257263209
5	296	29.5	212.21257263209
5	297	29.6	212.21257263209
5	298	29.7	212.21257263209
5	299	29.8	212.21257263209
5	300	29.9	212.21257263209
5	301	30	212.21257263209
5	302	30.1	219.32439473325
5	303	30.2	219.32439473325
5	304	30.3	219.32439473325
5	305	30.4	219.32439473325
5	306	30.5	219.32439473325
5	307	30.6	219.32439473325
5	308	30.7	219.32439473325
5	309	30.8	219.32439473325
5	310	30.9	219.32439473325
5	311	31	219.32439473325
5	312	31.1	225.16883987774
5	313	31.2	225.16883987774
5	314	31.3	225.16883987774
5	315	31.4	225.16883987774
5	316	31.5	225.16883987774
5	317	31.6	225.16883987774
5	318	31.7	225.16883987774
5	319	31.8	225.16883987774
5	320	31.9	225.16883987774
5	321	32	225.16883987774
5	322	32.1	226.6
5	323	32.2	226.6
5	324	32.3	226.6
5	325	32.4	226.6
5	326	32.5	226.6
5	327	32.6	226.6
5	328	32.7	226.6
5	329	32.8	226.6
5	330	32.9	226.6
5	331	33	226.6
5	332	33.1	226.6
5	333	33.2	226.6
5	334	33.3	226.6
5	335	33.4	226.6
5	336	33.5	226.6
5	337	33.6	226.6
5	338	33.7	226.6
5	339	33.8	226.6
5	340	33.9	226.6
5	341	34	226.6
5	342	34.1	226.6
5	343	34.2	226.6
5	344	34.3	226.6
5	345	34.4	226.6
5	346	34.5	226.6
5	347	34.6	226.6
5	348	34.7	226.6
5	349	34.8	226.6
5	350	34.9	226.6
5	351	35	226.6
5	352	35.1	226.6
5	353	35.2	226.6
5	354	35.3	226.6
5	355	35.4	226.6
5	356	35.5	226.6
5	357	35.6	226.6
5	358	35.7	226.6
5	359	35.8	226.6
5	360	35.9	226.6
5	361	36	226.6
5	362	36.1	226.6
5	363	36.2	226.6
5	364	36.3	226.6
5	365	36.4	226.6
5	366	36.5	226.6
5	367	36.6	226.6
5	368	36.7	226.6
5	369	36.8	226.6
5	370	36.9	226.6
5	371	37	226.6
5	372	37.1	226.6
5	373	37.2	226.6
5	374	37.3	226.6
5	375	37.4	226.6
5	376	37.5	226.6
5	377	37.6	226.6
5	378	37.7	226.6
5	379	37.8	226.6
5	380	37.9	226.6
5	381	38	226.6
5	382	38.1	226.6
5	383	38.2	226.6
5	384	38.3	226.6
5	385	38.4	226.6
5	386	38.5	226.6
5	387	38.6	226.6
5	388	38.7	226.6
5	389	38.8	226.6
5	390	38.9	226.6
5	391	39	226.6
5	392	39.1	226.6
5	393	39.2	226.6
5	394	39.3	226.6
5	395	39.4	226.6
5	396	39.5	226.6
5	397	39.6	226.6
5	398	39.7	226.6
5	399	39.8	226.6
5	400	39.9	226.6
5	401	40	226.6
5	402	40.1	226.6
5	403	40.2	226.6
5	404	40.3	226.6
5	405	40.4	226.6
5	406	40.5	226.6
5	407	40.6	226.6
5	408	40.7	226.6
5	409	40.8	226.6
5	410	40.9	226.6
5	411	41	226.6
5	412	41.1	226.6
5	413	41.2	226.6
5	414	41.3	226.6
5	415	41.4	226.6
5	416	41.5	226.6
5	417	41.6	226.6
5	418	41.7	226.6
5	419	41.8	226.6
5	420	41.9	226.6
5	421	42	226.6
5	422	42.1	226.6
5	423	42.2	226.6
5	424	42.3	226.6
5	425	42.4	226.6
5	426	42.5	226.6
5	427	42.6	226.6
5	428	42.7	226.6
5	429	42.8	226.6
5	430	42.9	226.6
5	431	43	226.6
5	432	43.1	229.8
5	433	43.2	229.8
5	434	43.3	229.8
5	435	43.4	229.8
5	436	43.5	229.8
5	437	43.6	229.8
5	438	43.7	229.8
5	439	43.8	229.8
5	440	43.9	229.8
5	441	44	229.8
5	442	44.1	229.8
5	443	44.2	229.8
5	444	44.3	229.8
5	445	44.4	229.8
5	446	44.5	229.8
5	447	44.6	229.8
5	448	44.7	229.8
5	449	44.8	229.8
5	450	44.9	229.8
5	451	45	229.8
5	452	45.1	229.8
5	453	45.2	229.8
5	454	45.3	229.8
5	455	45.4	229.8
5	456	45.5	229.8
5	457	45.6	229.8
5	458	45.7	229.8
5	459	45.8	229.8
5	460	45.9	229.8
5	461	46	229.8
5	462	46.1	229.8
5	463	46.2	229.8
5	464	46.3	229.8
5	465	46.4	229.8
5	466	46.5	229.8
5	467	46.6	229.8
5	468	46.7	229.8
5	469	46.8	229.8
5	470	46.9	229.8
5	471	47	229.8
5	472	47.1	229.8
5	473	47.2	229.8
5	474	47.3	229.8
5	475	47.4	229.8
5	476	47.5	229.8
5	477	47.6	229.8
5	478	47.7	229.8
5	479	47.8	229.8
5	480	47.9	229.8
5	481	48	229.8
5	482	48.1	229.8
5	483	48.2	229.8
5	484	48.3	229.8
5	485	48.4	229.8
5	486	48.5	229.8
5	487	48.6	229.8
5	488	48.7	229.8
5	489	48.8	229.8
5	490	48.9	229.8
5	491	49	229.8
5	492	49.1	229.8
5	493	49.2	229.8
5	494	49.3	229.8
5	495	49.4	229.8
5	496	49.5	229.8
5	497	49.6	229.8
5	498	49.7	229.8
5	499	49.8	229.8
5	500	49.9	229.8
5	501	50	229.8
5	502	50.1	226.6
5	503	50.2	226.6
5	504	50.3	226.6
5	505	50.4	226.6
5	506	50.5	226.6
5	507	50.6	226.6
5	508	50.7	226.6
5	509	50.8	226.6
5	510	50.9	226.6
5	511	51	226.6
5	512	51.1	226.6
5	513	51.2	226.6
5	514	51.3	226.6
5	515	51.4	226.6
5	516	51.5	226.6
5	517	51.6	226.6
5	518	51.7	226.6
5	519	51.8	226.6
5	520	51.9	226.6
5	521	52	226.6
5	522	52.1	226.6
5	523	52.2	226.6
5	524	52.3	226.6
5	525	52.4	226.6
5	526	52.5	226.6
5	527	52.6	226.6
5	528	52.7	226.6
5	529	52.8	226.6
5	530	52.9	226.6
5	531	53	226.6
5	532	53.1	226.6
5	533	53.2	226.6
5	534	53.3	226.6
5	535	53.4	226.6
5	536	53.5	226.6
5	537	53.6	226.6
5	538	53.7	226.6
5	539	53.8	226.6
5	540	53.9	226.6
5	541	54	226.6
5	542	54.1	226.6
5	543	54.2	226.6
5	544	54.3	226.6
5	545	54.4	226.6
5	546	54.5	226.6
5	547	54.6	226.6
5	548	54.7	226.6
5	549	54.8	226.6
5	550	54.9	226.6
5	551	55	226.6
5	552	55.1	226.6
5	553	55.2	226.6
5	554	55.3	226.6
5	555	55.4	226.6
5	556	55.5	226.6
5	557	55.6	226.6
5	558	55.7	226.6
5	559	55.8	226.6
5	560	55.9	226.6
5	561	56	226.6
5	562	56.1	226.6
5	563	56.2	226.6
5	564	56.3	226.6
5	565	56.4	226.6
5	566	56.5	226.6
5	567	56.6	226.6
5	568	56.7	226.6
5	569	56.8	226.6
5	570	56.9	226.6
5	571	57	226.6
5	572	57.1	227.70958199625
5	573	57.2	227.70958199625
5	574	57.3	227.70958199625
5	575	57.4	227.70958199625
5	576	57.5	227.70958199625
5	577	57.6	227.70958199625
5	578	57.7	227.70958199625
5	579	57.8	227.70958199625
5	580	57.9	227.70958199625
5	581	58	227.70958199625
5	582	58.1	233.05738228892
5	583	58.2	233.05738228892
5	584	58.3	233.05738228892
5	585	58.4	233.05738228892
5	586	58.5	233.05738228892
5	587	58.6	233.05738228892
5	588	58.7	233.05738228892
5	589	58.8	233.05738228892
5	590	58.9	233.05738228892
5	591	59	233.05738228892
5	592	59.1	239.3856495171
5	593	59.2	239.3856495171
5	594	59.3	239.3856495171
5	595	59.4	239.3856495171
5	596	59.5	239.3856495171
5	597	59.6	239.3856495171
5	598	59.7	239.3856495171
5	599	59.8	239.3856495171
5	600	59.9	239.3856495171
5	601	60	239.3856495171
5	602	60.1	247.66212091296
5	603	60.2	247.66212091296
5	604	60.3	247.66212091296
5	605	60.4	247.66212091296
5	606	60.5	247.66212091296
5	607	60.6	247.66212091296
5	608	60.7	247.66212091296
5	609	60.8	247.66212091296
5	610	60.9	247.66212091296
5	611	61	247.66212091296
5	612	61.1	258.15520086928
5	613	61.2	258.15520086928
5	614	61.3	258.15520086928
5	615	61.4	258.15520086928
5	616	61.5	258.15520086928
5	617	61.6	258.15520086928
5	618	61.7	258.15520086928
5	619	61.8	258.15520086928
5	620	61.9	258.15520086928
5	621	62	258.15520086928
5	622	62.1	269.30599691439
5	623	62.2	269.30599691439
5	624	62.3	269.30599691439
5	625	62.4	269.30599691439
5	626	62.5	269.30599691439
5	627	62.6	269.30599691439
5	628	62.7	269.30599691439
5	629	62.8	269.30599691439
5	630	62.9	269.30599691439
5	631	63	269.30599691439
5	632	63.1	280.72843819326
5	633	63.2	280.72843819326
5	634	63.3	280.72843819326
5	635	63.4	280.72843819326
5	636	63.5	280.72843819326
5	637	63.6	280.72843819326
5	638	63.7	280.72843819326
5	639	63.8	280.72843819326
5	640	63.9	280.72843819326
5	641	64	280.72843819326
5	642	64.1	291.85203423145
5	643	64.2	291.85203423145
5	644	64.3	291.85203423145
5	645	64.4	291.85203423145
5	646	64.5	291.85203423145
5	647	64.6	291.85203423145
5	648	64.7	291.85203423145
5	649	64.8	291.85203423145
5	650	64.9	291.85203423145
5	651	65	291.85203423145
5	652	65.1	303.8724749476
5	653	65.2	303.8724749476
5	654	65.3	303.8724749476
5	655	65.4	303.8724749476
5	656	65.5	303.8724749476
5	657	65.6	303.8724749476
5	658	65.7	303.8724749476
5	659	65.8	303.8724749476
5	660	65.9	303.8724749476
5	661	66	303.8724749476
5	662	66.1	313.45111425956
5	663	66.2	313.45111425956
5	664	66.3	313.45111425956
5	665	66.4	313.45111425956
5	666	66.5	313.45111425956
5	667	66.6	313.45111425956
5	668	66.7	313.45111425956
5	669	66.8	313.45111425956
5	670	66.9	313.45111425956
5	671	67	313.45111425956
5	672	67.1	319.48998749397
5	673	67.2	319.48998749397
5	674	67.3	319.48998749397
5	675	67.4	319.48998749397
5	676	67.5	319.48998749397
5	677	67.6	319.48998749397
5	678	67.7	319.48998749397
5	679	67.8	319.48998749397
5	680	67.9	319.48998749397
5	681	68	319.48998749397
5	682	68.1	322.97391119894
5	683	68.2	322.97391119894
5	684	68.3	322.97391119894
5	685	68.4	322.97391119894
5	686	68.5	322.97391119894
5	687	68.6	322.97391119894
5	688	68.7	322.97391119894
5	689	68.8	322.97391119894
5	690	68.9	322.97391119894
5	691	69	322.97391119894
5	692	69.1	323.4
5	693	69.2	323.4
5	694	69.3	323.4
5	695	69.4	323.4
5	696	69.5	323.4
5	697	69.6	323.4
5	698	69.7	323.4
5	699	69.8	323.4
5	700	69.9	323.4
5	701	70	323.4
5	702	70.1	323.4
5	703	70.2	323.4
5	704	70.3	323.4
5	705	70.4	323.4
5	706	70.5	323.4
5	707	70.6	323.4
5	708	70.7	323.4
5	709	70.8	323.4
5	710	70.9	323.4
5	711	71	323.4
5	712	71.1	323.4
5	713	71.2	323.4
5	714	71.3	323.4
5	715	71.4	323.4
5	716	71.5	323.4
5	717	71.6	323.4
5	718	71.7	323.4
5	719	71.8	323.4
5	720	71.9	323.4
5	721	72	323.4
5	722	72.1	323.4
5	723	72.2	323.4
5	724	72.3	323.4
5	725	72.4	323.4
5	726	72.5	323.4
5	727	72.6	323.4
5	728	72.7	323.4
5	729	72.8	323.4
5	730	72.9	323.4
5	731	73	323.4
5	732	73.1	323.4
5	733	73.2	323.4
5	734	73.3	323.4
5	735	73.4	323.4
5	736	73.5	323.4
5	737	73.6	323.4
5	738	73.7	323.4
5	739	73.8	323.4
5	740	73.9	323.4
5	741	74	323.4
5	742	74.1	323.4
5	743	74.2	323.4
5	744	74.3	323.4
5	745	74.4	323.4
5	746	74.5	323.4
5	747	74.6	323.4
5	748	74.7	323.4
5	749	74.8	323.4
5	750	74.9	323.4
5	751	75	323.4
5	752	75.1	323.4
5	753	75.2	323.4
5	754	75.3	323.4
5	755	75.4	323.4
5	756	75.5	323.4
5	757	75.6	323.4
5	758	75.7	323.4
5	759	75.8	323.4
5	760	75.9	323.4
5	761	76	323.4
5	762	76.1	323.4
5	763	76.2	323.4
5	764	76.3	323.4
5	765	76.4	323.4
5	766	76.5	323.4
5	767	76.6	323.4
5	768	76.7	323.4
5	769	76.8	323.4
5	770	76.9	323.4
5	771	77	323.4
5	772	77.1	323.4
5	773	77.2	323.4
5	774	77.3	323.4
5	775	77.4	323.4
5	776	77.5	323.4
5	777	77.6	323.4
5	778	77.7	323.4
5	779	77.8	323.4
5	780	77.9	323.4
5	781	78	323.4
5	782	78.1	323.4
5	783	78.2	323.4
5	784	78.3	323.4
5	785	78.4	323.4
5	786	78.5	323.4
5	787	78.6	323.4
5	788	78.7	323.4
5	789	78.8	323.4
5	790	78.9	323.4
5	791	79	323.4
5	792	79.1	323.4
5	793	79.2	323.4
5	794	79.3	323.4
5	795	79.4	323.4
5	796	79.5	323.4
5	797	79.6	323.4
5	798	79.7	323.4
5	799	79.8	323.4
5	800	79.9	323.4
5	801	80	323.4
5	802	80.1	323.4
5	803	80.2	323.4
5	804	80.3	323.4
5	805	80.4	323.4
5	806	80.5	323.4
5	807	80.6	323.4
5	808	80.7	323.4
5	809	80.8	323.4
5	810	80.9	323.4
5	811	81	323.4
5	812	81.1	323.4
5	813	81.2	323.4
5	814	81.3	323.4
5	815	81.4	323.4
5	816	81.5	323.4
5	817	81.6	323.4
5	818	81.7	323.4
5	819	81.8	323.4
5	820	81.9	323.4
5	821	82	323.4
5	822	82.1	323.4
5	823	82.2	323.4
5	824	82.3	323.4
5	825	82.4	323.4
5	826	82.5	323.4
5	827	82.6	323.4
5	828	82.7	323.4
5	829	82.8	323.4
5	830	82.9	323.4
5	831	83	323.4
5	832	83.1	323.4
5	833	83.2	323.4
5	834	83.3	323.4
5	835	83.4	323.4
5	836	83.5	323.4
5	837	83.6	323.4
5	838	83.7	323.4
5	839	83.8	323.4
5	840	83.9	323.4
5	841	84	323.4
5	842	84.1	323.4
5	843	84.2	323.4
5	844	84.3	323.4
5	845	84.4	323.4
5	846	84.5	323.4
5	847	84.6	323.4
5	848	84.7	323.4
5	849	84.8	323.4
5	850	84.9	323.4
5	851	85	323.4
5	852	85.1	323.4
5	853	85.2	323.4
5	854	85.3	323.4
5	855	85.4	323.4
5	856	85.5	323.4
5	857	85.6	323.4
5	858	85.7	323.4
5	859	85.8	323.4
5	860	85.9	323.4
5	861	86	323.4
5	862	86.1	323.4
5	863	86.2	323.4
5	864	86.3	323.4
5	865	86.4	323.4
5	866	86.5	323.4
5	867	86.6	323.4
5	868	86.7	323.4
5	869	86.8	323.4
5	870	86.9	323.4
5	871	87	323.4
5	872	87.1	323.4
5	873	87.2	323.4
5	874	87.3	323.4
5	875	87.4	323.4
5	876	87.5	323.4
5	877	87.6	323.4
5	878	87.7	323.4
5	879	87.8	323.4
5	880	87.9	323.4
5	881	88	323.4
5	882	88.1	321.86203753023
5	883	88.2	321.86203753023
5	884	88.3	321.86203753023
5	885	88.4	321.86203753023
5	886	88.5	321.86203753023
5	887	88.6	321.86203753023
5	888	88.7	321.86203753023
5	889	88.8	321.86203753023
5	890	88.9	321.86203753023
5	891	89	321.86203753023
5	892	89.1	316.82136463821
5	893	89.2	316.82136463821
8	2	0.1	109.5
8	3	0.2	109.5
8	4	0.3	109.5
8	5	0.4	109.5
8	6	0.5	109.5
8	7	0.6	109.5
8	8	0.7	109.5
8	9	0.8	109.5
8	10	0.9	109.5
8	11	1	109.5
8	12	1.1	108.15713878986
8	13	1.2	108.15713878986
8	14	1.3	108.15713878986
8	15	1.4	108.15713878986
8	16	1.5	108.15713878986
8	17	1.6	108.15713878986
8	18	1.7	108.15713878986
8	19	1.8	108.15713878986
8	20	1.9	108.15713878986
8	21	2	108.15713878986
8	22	2.1	105.38508547083
8	23	2.2	105.38508547083
8	24	2.3	105.38508547083
8	25	2.4	105.38508547083
8	26	2.5	105.38508547083
8	27	2.6	105.38508547083
8	28	2.7	105.38508547083
8	29	2.8	105.38508547083
8	30	2.9	105.38508547083
8	31	3	105.38508547083
8	32	3.1	100.3016232746
8	33	3.2	100.3016232746
8	34	3.3	100.3016232746
8	35	3.4	100.3016232746
8	36	3.5	100.3016232746
8	37	3.6	100.3016232746
8	38	3.7	100.3016232746
8	39	3.8	100.3016232746
8	40	3.9	100.3016232746
8	41	4	100.3016232746
8	42	4.1	92.689895235328
8	43	4.2	92.689895235328
8	44	4.3	92.689895235328
8	45	4.4	92.689895235328
8	46	4.5	92.689895235328
8	47	4.6	92.689895235328
8	48	4.7	92.689895235328
8	49	4.8	92.689895235328
8	50	4.9	92.689895235328
8	51	5	92.689895235328
8	52	5.1	83.610119190579
8	53	5.2	83.610119190579
8	54	5.3	83.610119190579
8	55	5.4	83.610119190579
8	56	5.5	83.610119190579
8	57	5.6	83.610119190579
8	58	5.7	83.610119190579
8	59	5.8	83.610119190579
8	60	5.9	83.610119190579
8	61	6	83.610119190579
8	62	6.1	73.011069337814
8	63	6.2	73.011069337814
8	64	6.3	73.011069337814
8	65	6.4	73.011069337814
8	66	6.5	73.011069337814
8	67	6.6	73.011069337814
8	68	6.7	73.011069337814
8	69	6.8	73.011069337814
8	70	6.9	73.011069337814
8	71	7	73.011069337814
8	72	7.1	60.826030238048
8	73	7.2	60.826030238048
8	74	7.3	60.826030238048
8	75	7.4	60.826030238048
8	76	7.5	60.826030238048
8	77	7.6	60.826030238048
8	78	7.7	60.826030238048
8	79	7.8	60.826030238048
8	80	7.9	60.826030238048
8	81	8	60.826030238048
8	82	8.1	48.845114202041
8	83	8.2	48.845114202041
8	84	8.3	48.845114202041
8	85	8.4	48.845114202041
8	86	8.5	48.845114202041
8	87	8.6	48.845114202041
8	88	8.7	48.845114202041
8	89	8.8	48.845114202041
8	90	8.9	48.845114202041
8	91	9	48.845114202041
8	92	9.1	40.254603643703
8	93	9.2	40.254603643703
8	94	9.3	40.254603643703
8	95	9.4	40.254603643703
8	96	9.5	40.254603643703
8	97	9.6	40.254603643703
8	98	9.7	40.254603643703
8	99	9.8	40.254603643703
8	100	9.9	40.254603643703
8	101	10	40.254603643703
8	102	10.1	35.646080318755
8	103	10.2	35.646080318755
8	104	10.3	35.646080318755
8	105	10.4	35.646080318755
8	106	10.5	35.646080318755
8	107	10.6	35.646080318755
8	108	10.7	35.646080318755
8	109	10.8	35.646080318755
8	110	10.9	35.646080318755
8	111	11	35.646080318755
8	112	11.1	33.64007052669
8	113	11.2	33.64007052669
8	114	11.3	33.64007052669
8	115	11.4	33.64007052669
8	116	11.5	33.64007052669
8	117	11.6	33.64007052669
8	118	11.7	33.64007052669
8	119	11.8	33.64007052669
8	120	11.9	33.64007052669
8	121	12	33.64007052669
8	122	12.1	33.312540815683
8	123	12.2	33.312540815683
8	124	12.3	33.312540815683
8	125	12.4	33.312540815683
8	126	12.5	33.312540815683
8	127	12.6	33.312540815683
8	128	12.7	33.312540815683
8	129	12.8	33.312540815683
8	130	12.9	33.312540815683
8	131	13	33.312540815683
8	132	13.1	30.789802680793
8	133	13.2	30.789802680793
8	134	13.3	30.789802680793
8	135	13.4	30.789802680793
8	136	13.5	30.789802680793
8	137	13.6	30.789802680793
8	138	13.7	30.789802680793
8	139	13.8	30.789802680793
8	140	13.9	30.789802680793
8	141	14	30.789802680793
8	142	14.1	26.773846650164
8	143	14.2	26.773846650164
8	144	14.3	26.773846650164
8	145	14.4	26.773846650164
8	146	14.5	26.773846650164
8	147	14.6	26.773846650164
8	148	14.7	26.773846650164
8	149	14.8	26.773846650164
8	150	14.9	26.773846650164
8	151	15	26.773846650164
8	152	15.1	23.832464425485
8	153	15.2	23.832464425485
8	154	15.3	23.832464425485
8	155	15.4	23.832464425485
8	156	15.5	23.832464425485
8	157	15.6	23.832464425485
8	158	15.7	23.832464425485
8	159	15.8	23.832464425485
8	160	15.9	23.832464425485
8	161	16	23.832464425485
8	162	16.1	23.4
8	163	16.2	23.4
8	164	16.3	23.4
8	165	16.4	23.4
8	166	16.5	23.4
8	167	16.6	23.4
8	168	16.7	23.4
8	169	16.8	23.4
8	170	16.9	23.4
8	171	17	23.4
8	172	17.1	23.4
8	173	17.2	23.4
8	174	17.3	23.4
8	175	17.4	23.4
8	176	17.5	23.4
8	177	17.6	23.4
8	178	17.7	23.4
8	179	17.8	23.4
8	180	17.9	23.4
8	181	18	23.4
8	182	18.1	23.4
8	183	18.2	23.4
8	184	18.3	23.4
8	185	18.4	23.4
8	186	18.5	23.4
8	187	18.6	23.4
8	188	18.7	23.4
8	189	18.8	23.4
8	190	18.9	23.4
8	191	19	23.4
8	192	19.1	23.4
8	193	19.2	23.4
8	194	19.3	23.4
8	195	19.4	23.4
8	196	19.5	23.4
8	197	19.6	23.4
8	198	19.7	23.4
8	199	19.8	23.4
8	200	19.9	23.4
8	201	20	23.4
8	202	20.1	23.4
8	203	20.2	23.4
8	204	20.3	23.4
8	205	20.4	23.4
8	206	20.5	23.4
8	207	20.6	23.4
8	208	20.7	23.4
8	209	20.8	23.4
8	210	20.9	23.4
8	211	21	23.4
8	212	21.1	23.4
8	213	21.2	23.4
8	214	21.3	23.4
8	215	21.4	23.4
8	216	21.5	23.4
8	217	21.6	23.4
8	218	21.7	23.4
8	219	21.8	23.4
8	220	21.9	23.4
8	221	22	23.4
8	222	22.1	23.4
8	223	22.2	23.4
8	224	22.3	23.4
8	225	22.4	23.4
8	226	22.5	23.4
8	227	22.6	23.4
8	228	22.7	23.4
8	229	22.8	23.4
8	230	22.9	23.4
8	231	23	23.4
8	232	23.1	23.4
8	233	23.2	23.4
8	234	23.3	23.4
8	235	23.4	23.4
8	236	23.5	23.4
8	237	23.6	23.4
8	238	23.7	23.4
8	239	23.8	23.4
8	240	23.9	23.4
8	241	24	23.4
8	242	24.1	23.709328317035
8	243	24.2	23.709328317035
8	244	24.3	23.709328317035
8	245	24.4	23.709328317035
8	246	24.5	23.709328317035
8	247	24.6	23.709328317035
8	248	24.7	23.709328317035
8	249	24.8	23.709328317035
8	250	24.9	23.709328317035
8	251	25	23.709328317035
8	252	25.1	26.902058089962
8	253	25.2	26.902058089962
8	254	25.3	26.902058089962
8	255	25.4	26.902058089962
8	256	25.5	26.902058089962
8	257	25.6	26.902058089962
8	258	25.7	26.902058089962
8	259	25.8	26.902058089962
8	260	25.9	26.902058089962
8	261	26	26.902058089962
8	262	26.1	33.153575121305
8	263	26.2	33.153575121305
8	264	26.3	33.153575121305
8	265	26.4	33.153575121305
8	266	26.5	33.153575121305
8	267	26.6	33.153575121305
8	268	26.7	33.153575121305
8	269	26.8	33.153575121305
8	270	26.9	33.153575121305
8	271	27	33.153575121305
8	272	27.1	41.611139774565
8	273	27.2	41.611139774565
8	274	27.3	41.611139774565
8	275	27.4	41.611139774565
8	276	27.5	41.611139774565
8	277	27.6	41.611139774565
8	278	27.7	41.611139774565
8	279	27.8	41.611139774565
8	280	27.9	41.611139774565
8	281	28	41.611139774565
8	282	28.1	52.428097721912
8	283	28.2	52.428097721912
8	284	28.3	52.428097721912
8	285	28.4	52.428097721912
8	286	28.5	52.428097721912
8	287	28.6	52.428097721912
8	288	28.7	52.428097721912
8	289	28.8	52.428097721912
8	290	28.9	52.428097721912
8	291	29	52.428097721912
8	292	29.1	64.848167625623
8	293	29.2	64.848167625623
8	294	29.3	64.848167625623
8	295	29.4	64.848167625623
8	296	29.5	64.848167625623
8	297	29.6	64.848167625623
8	298	29.7	64.848167625623
8	299	29.8	64.848167625623
8	300	29.9	64.848167625623
8	301	30	64.848167625623
8	302	30.1	76.090938502958
8	303	30.2	76.090938502958
8	304	30.3	76.090938502958
8	305	30.4	76.090938502958
8	306	30.5	76.090938502958
8	307	30.6	76.090938502958
8	308	30.7	76.090938502958
8	309	30.8	76.090938502958
8	310	30.9	76.090938502958
8	311	31	76.090938502958
8	312	31.1	87.830151284236
8	313	31.2	87.830151284236
8	314	31.3	87.830151284236
8	315	31.4	87.830151284236
8	316	31.5	87.830151284236
8	317	31.6	87.830151284236
8	318	31.7	87.830151284236
8	319	31.8	87.830151284236
8	320	31.9	87.830151284236
8	321	32	87.830151284236
8	322	32.1	99.051875490137
8	323	32.2	99.051875490137
8	324	32.3	99.051875490137
8	325	32.4	99.051875490137
8	326	32.5	99.051875490137
8	327	32.6	99.051875490137
8	328	32.7	99.051875490137
8	329	32.8	99.051875490137
8	330	32.9	99.051875490137
8	331	33	99.051875490137
8	332	33.1	108.13499788227
8	333	33.2	108.13499788227
8	334	33.3	108.13499788227
8	335	33.4	108.13499788227
8	336	33.5	108.13499788227
8	337	33.6	108.13499788227
8	338	33.7	108.13499788227
8	339	33.8	108.13499788227
8	340	33.9	108.13499788227
8	341	34	108.13499788227
8	342	34.1	112.93682511606
8	343	34.2	112.93682511606
8	344	34.3	112.93682511606
8	345	34.4	112.93682511606
8	346	34.5	112.93682511606
8	347	34.6	112.93682511606
8	348	34.7	112.93682511606
8	349	34.8	112.93682511606
8	350	34.9	112.93682511606
8	351	35	112.93682511606
8	352	35.1	119.75499873616
8	353	35.2	119.75499873616
8	354	35.3	119.75499873616
8	355	35.4	119.75499873616
8	356	35.5	119.75499873616
8	357	35.6	119.75499873616
8	358	35.7	119.75499873616
8	359	35.8	119.75499873616
8	360	35.9	119.75499873616
8	361	36	119.75499873616
8	362	36.1	128.67140953772
8	363	36.2	128.67140953772
8	364	36.3	128.67140953772
8	365	36.4	128.67140953772
8	366	36.5	128.67140953772
8	367	36.6	128.67140953772
8	368	36.7	128.67140953772
8	369	36.8	128.67140953772
8	370	36.9	128.67140953772
8	371	37	128.67140953772
8	372	37.1	139.12015012573
8	373	37.2	139.12015012573
8	374	37.3	139.12015012573
8	375	37.4	139.12015012573
8	376	37.5	139.12015012573
8	377	37.6	139.12015012573
8	378	37.7	139.12015012573
8	379	37.8	139.12015012573
8	380	37.9	139.12015012573
8	381	38	139.12015012573
8	382	38.1	151.10392414527
8	383	38.2	151.10392414527
8	384	38.3	151.10392414527
8	385	38.4	151.10392414527
8	386	38.5	151.10392414527
8	387	38.6	151.10392414527
8	388	38.7	151.10392414527
8	389	38.8	151.10392414527
8	390	38.9	151.10392414527
8	391	39	151.10392414527
8	392	39.1	163.19967694494
8	393	39.2	163.19967694494
8	394	39.3	163.19967694494
8	395	39.4	163.19967694494
8	396	39.5	163.19967694494
8	397	39.6	163.19967694494
8	398	39.7	163.19967694494
8	399	39.8	163.19967694494
8	400	39.9	163.19967694494
8	401	40	163.19967694494
8	402	40.1	174.96445064646
8	403	40.2	174.96445064646
8	404	40.3	174.96445064646
8	405	40.4	174.96445064646
8	406	40.5	174.96445064646
8	407	40.6	174.96445064646
8	408	40.7	174.96445064646
8	409	40.8	174.96445064646
8	410	40.9	174.96445064646
8	411	41	174.96445064646
8	412	41.1	187.02053005943
8	413	41.2	187.02053005943
8	414	41.3	187.02053005943
8	415	41.4	187.02053005943
8	416	41.5	187.02053005943
8	417	41.6	187.02053005943
8	418	41.7	187.02053005943
8	419	41.8	187.02053005943
8	420	41.9	187.02053005943
8	421	42	187.02053005943
8	422	42.1	197.47886015517
8	423	42.2	197.47886015517
8	424	42.3	197.47886015517
8	425	42.4	197.47886015517
8	426	42.5	197.47886015517
8	427	42.6	197.47886015517
8	428	42.7	197.47886015517
8	429	42.8	197.47886015517
8	430	42.9	197.47886015517
8	431	43	197.47886015517
8	432	43.1	203.8900766964
8	433	43.2	203.8900766964
8	434	43.3	203.8900766964
8	435	43.4	203.8900766964
8	436	43.5	203.8900766964
8	437	43.6	203.8900766964
8	438	43.7	203.8900766964
8	439	43.8	203.8900766964
8	440	43.9	203.8900766964
8	441	44	203.8900766964
8	442	44.1	210.71879683561
8	443	44.2	210.71879683561
8	444	44.3	210.71879683561
8	445	44.4	210.71879683561
8	446	44.5	210.71879683561
8	447	44.6	210.71879683561
8	448	44.7	210.71879683561
8	449	44.8	210.71879683561
8	450	44.9	210.71879683561
8	451	45	210.71879683561
8	452	45.1	219.82264826524
8	453	45.2	219.82264826524
8	454	45.3	219.82264826524
8	455	45.4	219.82264826524
8	456	45.5	219.82264826524
8	457	45.6	219.82264826524
8	458	45.7	219.82264826524
8	459	45.8	219.82264826524
8	460	45.9	219.82264826524
8	461	46	219.82264826524
8	462	46.1	231.126184257
8	463	46.2	231.126184257
8	464	46.3	231.126184257
8	465	46.4	231.126184257
8	466	46.5	231.126184257
8	467	46.6	231.126184257
8	468	46.7	231.126184257
8	469	46.8	231.126184257
8	470	46.9	231.126184257
8	471	47	231.126184257
8	472	47.1	242.6529136499
8	473	47.2	242.6529136499
8	474	47.3	242.6529136499
8	475	47.4	242.6529136499
8	476	47.5	242.6529136499
8	477	47.6	242.6529136499
8	478	47.7	242.6529136499
8	479	47.8	242.6529136499
8	480	47.9	242.6529136499
8	481	48	242.6529136499
8	482	48.1	254.43420040163
8	483	48.2	254.43420040163
8	484	48.3	254.43420040163
8	485	48.4	254.43420040163
8	486	48.5	254.43420040163
8	487	48.6	254.43420040163
8	488	48.7	254.43420040163
8	489	48.8	254.43420040163
8	490	48.9	254.43420040163
8	491	49	254.43420040163
8	492	49.1	266.01814814631
8	493	49.2	266.01814814631
8	494	49.3	266.01814814631
8	495	49.4	266.01814814631
8	496	49.5	266.01814814631
8	497	49.6	266.01814814631
8	498	49.7	266.01814814631
8	499	49.8	266.01814814631
8	500	49.9	266.01814814631
8	501	50	266.01814814631
8	502	50.1	277.24087076073
8	503	50.2	277.24087076073
8	504	50.3	277.24087076073
8	505	50.4	277.24087076073
8	506	50.5	277.24087076073
8	507	50.6	277.24087076073
8	508	50.7	277.24087076073
8	509	50.8	277.24087076073
8	510	50.9	277.24087076073
8	511	51	277.24087076073
8	512	51.1	289.45415972908
8	513	51.2	289.45415972908
8	514	51.3	289.45415972908
8	515	51.4	289.45415972908
8	516	51.5	289.45415972908
8	517	51.6	289.45415972908
8	518	51.7	289.45415972908
8	519	51.8	289.45415972908
8	520	51.9	289.45415972908
8	521	52	289.45415972908
8	522	52.1	300.89175037195
8	523	52.2	300.89175037195
8	524	52.3	300.89175037195
8	525	52.4	300.89175037195
8	526	52.5	300.89175037195
8	527	52.6	300.89175037195
8	528	52.7	300.89175037195
8	529	52.8	300.89175037195
8	530	52.9	300.89175037195
8	531	53	300.89175037195
8	532	53.1	310.01808601519
8	533	53.2	310.01808601519
8	534	53.3	310.01808601519
8	535	53.4	310.01808601519
8	536	53.5	310.01808601519
8	537	53.6	310.01808601519
8	538	53.7	310.01808601519
8	539	53.8	310.01808601519
8	540	53.9	310.01808601519
8	541	54	310.01808601519
8	542	54.1	315.18436154934
8	543	54.2	315.18436154934
8	544	54.3	315.18436154934
8	545	54.4	315.18436154934
8	546	54.5	315.18436154934
8	547	54.6	315.18436154934
8	548	54.7	315.18436154934
8	549	54.8	315.18436154934
8	550	54.9	315.18436154934
8	551	55	315.18436154934
8	552	55.1	321.54483836214
8	553	55.2	321.54483836214
8	554	55.3	321.54483836214
8	555	55.4	321.54483836214
8	556	55.5	321.54483836214
8	557	55.6	321.54483836214
8	558	55.7	321.54483836214
8	559	55.8	321.54483836214
8	560	55.9	321.54483836214
8	561	56	321.54483836214
8	562	56.1	325.88474560812
8	563	56.2	325.88474560812
8	564	56.3	325.88474560812
8	565	56.4	325.88474560812
8	566	56.5	325.88474560812
8	567	56.6	325.88474560812
8	568	56.7	325.88474560812
8	569	56.8	325.88474560812
8	570	56.9	325.88474560812
8	571	57	325.88474560812
8	572	57.1	326.6
8	573	57.2	326.6
8	574	57.3	326.6
8	575	57.4	326.6
8	576	57.5	326.6
8	577	57.6	326.6
8	578	57.7	326.6
8	579	57.8	326.6
8	580	57.9	326.6
8	581	58	326.6
8	582	58.1	326.6
8	583	58.2	326.6
8	584	58.3	326.6
8	585	58.4	326.6
8	586	58.5	326.6
8	587	58.6	326.6
8	588	58.7	326.6
8	589	58.8	326.6
8	590	58.9	326.6
8	591	59	326.6
8	592	59.1	326.6
8	593	59.2	326.6
8	594	59.3	326.6
8	595	59.4	326.6
8	596	59.5	326.6
8	597	59.6	326.6
8	598	59.7	326.6
8	599	59.8	326.6
8	600	59.9	326.6
8	601	60	326.6
8	602	60.1	326.6
8	603	60.2	326.6
8	604	60.3	326.6
8	605	60.4	326.6
8	606	60.5	326.6
8	607	60.6	326.6
8	608	60.7	326.6
8	609	60.8	326.6
8	610	60.9	326.6
8	611	61	326.6
8	612	61.1	326.6
8	613	61.2	326.6
8	614	61.3	326.6
8	615	61.4	326.6
8	616	61.5	326.6
8	617	61.6	326.6
8	618	61.7	326.6
8	619	61.8	326.6
8	620	61.9	326.6
8	621	62	326.6
8	622	62.1	326.6
8	623	62.2	326.6
8	624	62.3	326.6
8	625	62.4	326.6
8	626	62.5	326.6
8	627	62.6	326.6
8	628	62.7	326.6
8	629	62.8	326.6
8	630	62.9	326.6
8	631	63	326.6
8	632	63.1	326.6
8	633	63.2	326.6
8	634	63.3	326.6
8	635	63.4	326.6
8	636	63.5	326.6
8	637	63.6	326.6
8	638	63.7	326.6
8	639	63.8	326.6
8	640	63.9	326.6
8	641	64	326.6
8	642	64.1	326.6
8	643	64.2	326.6
8	644	64.3	326.6
8	645	64.4	326.6
8	646	64.5	326.6
8	647	64.6	326.6
8	648	64.7	326.6
8	649	64.8	326.6
8	650	64.9	326.6
8	651	65	326.6
8	652	65.1	326.26540757535
8	653	65.2	326.26540757535
8	654	65.3	326.26540757535
8	655	65.4	326.26540757535
8	656	65.5	326.26540757535
8	657	65.6	326.26540757535
8	658	65.7	326.26540757535
8	659	65.8	326.26540757535
8	660	65.9	326.26540757535
8	661	66	326.26540757535
8	662	66.1	322.74686638289
8	663	66.2	322.74686638289
8	664	66.3	322.74686638289
8	665	66.4	322.74686638289
8	666	66.5	322.74686638289
8	667	66.6	322.74686638289
8	668	66.7	322.74686638289
8	669	66.8	322.74686638289
8	670	66.9	322.74686638289
8	671	67	322.74686638289
8	672	67.1	316.32759290365
8	673	67.2	316.32759290365
8	674	67.3	316.32759290365
8	675	67.4	316.32759290365
8	676	67.5	316.32759290365
8	677	67.6	316.32759290365
8	678	67.7	316.32759290365
8	679	67.8	316.32759290365
8	680	67.9	316.32759290365
8	681	68	316.32759290365
8	682	68.1	307.6586067437
8	683	68.2	307.6586067437
8	684	68.3	307.6586067437
8	685	68.4	307.6586067437
8	686	68.5	307.6586067437
8	687	68.6	307.6586067437
8	688	68.7	307.6586067437
8	689	68.8	307.6586067437
8	690	68.9	307.6586067437
8	691	69	307.6586067437
8	692	69.1	297.42512646321
8	693	69.2	297.42512646321
8	694	69.3	297.42512646321
8	695	69.4	297.42512646321
8	696	69.5	297.42512646321
8	697	69.6	297.42512646321
8	698	69.7	297.42512646321
8	699	69.8	297.42512646321
8	700	69.9	297.42512646321
8	701	70	297.42512646321
8	702	70.1	286.20728106824
8	703	70.2	286.20728106824
8	704	70.3	286.20728106824
8	705	70.4	286.20728106824
8	706	70.5	286.20728106824
8	707	70.6	286.20728106824
8	708	70.7	286.20728106824
8	709	70.8	286.20728106824
8	710	70.9	286.20728106824
8	711	71	286.20728106824
8	712	71.1	273.99197229222
8	713	71.2	273.99197229222
8	714	71.3	273.99197229222
8	715	71.4	273.99197229222
8	716	71.5	273.99197229222
8	717	71.6	273.99197229222
8	718	71.7	273.99197229222
8	719	71.8	273.99197229222
8	720	71.9	273.99197229222
8	721	72	273.99197229222
8	722	72.1	262.48979041205
8	723	72.2	262.48979041205
8	724	72.3	262.48979041205
8	725	72.4	262.48979041205
8	726	72.5	262.48979041205
8	727	72.6	262.48979041205
8	728	72.7	262.48979041205
8	729	72.8	262.48979041205
8	730	72.9	262.48979041205
8	731	73	262.48979041205
8	732	73.1	251.04961470872
8	733	73.2	251.04961470872
8	734	73.3	251.04961470872
8	735	73.4	251.04961470872
8	736	73.5	251.04961470872
8	737	73.6	251.04961470872
8	738	73.7	251.04961470872
8	739	73.8	251.04961470872
8	740	73.9	251.04961470872
8	741	74	251.04961470872
8	742	74.1	242.1449991713
8	743	74.2	242.1449991713
8	744	74.3	242.1449991713
8	745	74.4	242.1449991713
8	746	74.5	242.1449991713
8	747	74.6	242.1449991713
8	748	74.7	242.1449991713
8	749	74.8	242.1449991713
8	750	74.9	242.1449991713
8	751	75	242.1449991713
8	752	75.1	237.34890479552
8	753	75.2	237.34890479552
8	754	75.3	237.34890479552
8	755	75.4	237.34890479552
8	756	75.5	237.34890479552
8	757	75.6	237.34890479552
8	758	75.7	237.34890479552
8	759	75.8	237.34890479552
8	760	75.9	237.34890479552
8	761	76	237.34890479552
8	762	76.1	230.57865790237
8	763	76.2	230.57865790237
8	764	76.3	230.57865790237
8	765	76.4	230.57865790237
8	766	76.5	230.57865790237
8	767	76.6	230.57865790237
8	768	76.7	230.57865790237
8	769	76.8	230.57865790237
8	770	76.9	230.57865790237
8	771	77	230.57865790237
8	772	77.1	227.03394007167
8	773	77.2	227.03394007167
8	774	77.3	227.03394007167
8	775	77.4	227.03394007167
8	776	77.5	227.03394007167
8	777	77.6	227.03394007167
8	778	77.7	227.03394007167
8	779	77.8	227.03394007167
8	780	77.9	227.03394007167
8	781	78	227.03394007167
8	782	78.1	226.6
8	783	78.2	226.6
8	784	78.3	226.6
8	785	78.4	226.6
8	786	78.5	226.6
8	787	78.6	226.6
8	788	78.7	226.6
8	789	78.8	226.6
8	790	78.9	226.6
8	791	79	226.6
8	792	79.1	226.6
8	793	79.2	226.6
8	794	79.3	226.6
8	795	79.4	226.6
8	796	79.5	226.6
8	797	79.6	226.6
8	798	79.7	226.6
8	799	79.8	226.6
8	800	79.9	226.6
8	801	80	226.6
8	802	80.1	226.6
8	803	80.2	226.6
8	804	80.3	226.6
8	805	80.4	226.6
8	806	80.5	226.6
8	807	80.6	226.6
8	808	80.7	226.6
8	809	80.8	226.6
8	810	80.9	226.6
8	811	81	226.6
8	812	81.1	226.6
8	813	81.2	226.6
8	814	81.3	226.6
8	815	81.4	226.6
8	816	81.5	226.6
8	817	81.6	226.6
8	818	81.7	226.6
8	819	81.8	226.6
8	820	81.9	226.6
8	821	82	226.6
8	822	82.1	226.6
8	823	82.2	226.6
8	824	82.3	226.6
8	825	82.4	226.6
8	826	82.5	226.6
8	827	82.6	226.6
8	828	82.7	226.6
8	829	82.8	226.6
8	830	82.9	226.6
8	831	83	226.6
8	832	83.1	226.6
8	833	83.2	226.6
8	834	83.3	226.6
8	835	83.4	226.6
8	836	83.5	226.6
8	837	83.6	226.6
8	838	83.7	226.6
8	839	83.8	226.6
8	840	83.9	226.6
8	841	84	226.6
8	842	84.1	226.6
8	843	84.2	226.6
8	844	84.3	226.6
8	845	84.4	226.6
8	846	84.5	226.6
8	847	84.6	226.6
8	848	84.7	226.6
8	849	84.8	226.6
8	850	84.9	226.6
8	851	85	226.6
8	852	85.1	226.6
8	853	85.2	226.6
8	854	85.3	226.6
8	855	85.4	226.6
8	856	85.5	226.6
8	857	85.6	226.6
8	858	85.7	226.6
8	859	85.8	226.6
8	860	85.9	226.6
8	861	86	226.6
8	862	86.1	226.6
8	863	86.2	226.6
8	864	86.3	226.6
8	865	86.4	226.6
8	866	86.5	226.6
8	867	86.6	226.6
8	868	86.7	226.6
8	869	86.8	226.6
8	870	86.9	226.6
8	871	87	226.6
8	872	87.1	227.54958836281
8	873	87.2	227.54958836281
8	874	87.3	227.54958836281
8	875	87.4	227.54958836281
8	876	87.5	227.54958836281
8	877	87.6	227.54958836281
8	878	87.7	227.54958836281
8	879	87.8	227.54958836281
8	880	87.9	227.54958836281
8	881	88	227.54958836281
8	882	88.1	231.84571388625
8	883	88.2	231.84571388625
8	884	88.3	231.84571388625
8	885	88.4	231.84571388625
8	886	88.5	231.84571388625
8	887	88.6	231.84571388625
8	888	88.7	231.84571388625
8	889	88.8	231.84571388625
8	890	88.9	231.84571388625
8	891	89	231.84571388625
8	892	89.1	237.87846466923
8	893	89.2	237.87846466923
9	2	0.1	120.2
9	3	0.2	120.2
9	4	0.3	120.2
9	5	0.4	120.2
9	6	0.5	120.2
9	7	0.6	120.2
9	8	0.7	120.2
9	9	0.8	120.2
9	10	0.9	120.2
9	11	1	120.2
9	12	1.1	120.2
9	13	1.2	120.2
9	14	1.3	120.2
9	15	1.4	120.2
9	16	1.5	120.2
9	17	1.6	120.2
9	18	1.7	120.2
9	19	1.8	120.2
9	20	1.9	120.2
9	21	2	120.2
9	22	2.1	123.4
9	23	2.2	123.4
9	24	2.3	123.4
9	25	2.4	123.4
9	26	2.5	123.4
9	27	2.6	123.4
9	28	2.7	123.4
9	29	2.8	123.4
9	30	2.9	123.4
9	31	3	123.4
9	32	3.1	123.4
9	33	3.2	123.4
9	34	3.3	123.4
9	35	3.4	123.4
9	36	3.5	123.4
9	37	3.6	123.4
9	38	3.7	123.4
9	39	3.8	123.4
9	40	3.9	123.4
9	41	4	123.4
9	42	4.1	123.4
9	43	4.2	123.4
9	44	4.3	123.4
9	45	4.4	123.4
9	46	4.5	123.4
9	47	4.6	123.4
9	48	4.7	123.4
9	49	4.8	123.4
9	50	4.9	123.4
9	51	5	123.4
9	52	5.1	123.4
9	53	5.2	123.4
9	54	5.3	123.4
9	55	5.4	123.4
9	56	5.5	123.4
9	57	5.6	123.4
9	58	5.7	123.4
9	59	5.8	123.4
9	60	5.9	123.4
9	61	6	123.4
9	62	6.1	123.4
9	63	6.2	123.4
9	64	6.3	123.4
9	65	6.4	123.4
9	66	6.5	123.4
9	67	6.6	123.4
9	68	6.7	123.4
9	69	6.8	123.4
9	70	6.9	123.4
9	71	7	123.4
9	72	7.1	123.4
9	73	7.2	123.4
9	74	7.3	123.4
9	75	7.4	123.4
9	76	7.5	123.4
9	77	7.6	123.4
9	78	7.7	123.4
9	79	7.8	123.4
9	80	7.9	123.4
9	81	8	123.4
9	82	8.1	123.4
9	83	8.2	123.4
9	84	8.3	123.4
9	85	8.4	123.4
9	86	8.5	123.4
9	87	8.6	123.4
9	88	8.7	123.4
9	89	8.8	123.4
9	90	8.9	123.4
9	91	9	123.4
9	92	9.1	123.4
9	93	9.2	123.4
9	94	9.3	123.4
9	95	9.4	123.4
9	96	9.5	123.4
9	97	9.6	123.4
9	98	9.7	123.4
9	99	9.8	123.4
9	100	9.9	123.4
9	101	10	123.4
9	102	10.1	123.4
9	103	10.2	123.4
9	104	10.3	123.4
9	105	10.4	123.4
9	106	10.5	123.4
9	107	10.6	123.4
9	108	10.7	123.4
9	109	10.8	123.4
9	110	10.9	123.4
9	111	11	123.4
9	112	11.1	123.6544476347
9	113	11.2	123.6544476347
9	114	11.3	123.6544476347
9	115	11.4	123.6544476347
9	116	11.5	123.6544476347
9	117	11.6	123.6544476347
9	118	11.7	123.6544476347
9	119	11.8	123.6544476347
9	120	11.9	123.6544476347
9	121	12	123.6544476347
9	122	12.1	123.70180132785
9	123	12.2	123.70180132785
9	124	12.3	123.70180132785
9	125	12.4	123.70180132785
9	126	12.5	123.70180132785
9	127	12.6	123.70180132785
9	128	12.7	123.70180132785
9	129	12.8	123.70180132785
9	130	12.9	123.70180132785
9	131	13	123.70180132785
9	132	13.1	124.05959309945
9	133	13.2	124.05959309945
9	134	13.3	124.05959309945
9	135	13.4	124.05959309945
9	136	13.5	124.05959309945
9	137	13.6	124.05959309945
9	138	13.7	124.05959309945
9	139	13.8	124.05959309945
9	140	13.9	124.05959309945
9	141	14	124.05959309945
9	142	14.1	126.1756920099
9	143	14.2	126.1756920099
9	144	14.3	126.1756920099
9	145	14.4	126.1756920099
9	146	14.5	126.1756920099
9	147	14.6	126.1756920099
9	148	14.7	126.1756920099
9	149	14.8	126.1756920099
9	150	14.9	126.1756920099
9	151	15	126.1756920099
9	152	15.1	132.3727490216
9	153	15.2	132.3727490216
9	154	15.3	132.3727490216
9	155	15.4	132.3727490216
9	156	15.5	132.3727490216
9	157	15.6	132.3727490216
9	158	15.7	132.3727490216
9	159	15.8	132.3727490216
9	160	15.9	132.3727490216
9	161	16	132.3727490216
9	162	16.1	140.40894061093
9	163	16.2	140.40894061093
9	164	16.3	140.40894061093
9	165	16.4	140.40894061093
9	166	16.5	140.40894061093
9	167	16.6	140.40894061093
9	168	16.7	140.40894061093
9	169	16.8	140.40894061093
9	170	16.9	140.40894061093
9	171	17	140.40894061093
9	172	17.1	150.00634125026
9	173	17.2	150.00634125026
9	174	17.3	150.00634125026
9	175	17.4	150.00634125026
9	176	17.5	150.00634125026
9	177	17.6	150.00634125026
9	178	17.7	150.00634125026
9	179	17.8	150.00634125026
9	180	17.9	150.00634125026
9	181	18	150.00634125026
9	182	18.1	161.13335544453
9	183	18.2	161.13335544453
9	184	18.3	161.13335544453
9	185	18.4	161.13335544453
9	186	18.5	161.13335544453
9	187	18.6	161.13335544453
9	188	18.7	161.13335544453
9	189	18.8	161.13335544453
9	190	18.9	161.13335544453
9	191	19	161.13335544453
9	192	19.1	173.55317606658
9	193	19.2	173.55317606658
9	194	19.3	173.55317606658
9	195	19.4	173.55317606658
9	196	19.5	173.55317606658
9	197	19.6	173.55317606658
9	198	19.7	173.55317606658
9	199	19.8	173.55317606658
9	200	19.9	173.55317606658
9	201	20	173.55317606658
9	202	20.1	185.81682055605
9	203	20.2	185.81682055605
9	204	20.3	185.81682055605
9	205	20.4	185.81682055605
9	206	20.5	185.81682055605
9	207	20.6	185.81682055605
9	208	20.7	185.81682055605
9	209	20.8	185.81682055605
9	210	20.9	185.81682055605
9	211	21	185.81682055605
9	212	21.1	197.99659272126
9	213	21.2	197.99659272126
9	214	21.3	197.99659272126
9	215	21.4	197.99659272126
9	216	21.5	197.99659272126
9	217	21.6	197.99659272126
9	218	21.7	197.99659272126
9	219	21.8	197.99659272126
9	220	21.9	197.99659272126
9	221	22	197.99659272126
9	222	22.1	209.90347705632
9	223	22.2	209.90347705632
9	224	22.3	209.90347705632
9	225	22.4	209.90347705632
9	226	22.5	209.90347705632
9	227	22.6	209.90347705632
9	228	22.7	209.90347705632
9	229	22.8	209.90347705632
9	230	22.9	209.90347705632
9	231	23	209.90347705632
9	232	23.1	217.81729022755
9	233	23.2	217.81729022755
9	234	23.3	217.81729022755
9	235	23.4	217.81729022755
9	236	23.5	217.81729022755
9	237	23.6	217.81729022755
9	238	23.7	217.81729022755
9	239	23.8	217.81729022755
9	240	23.9	217.81729022755
9	241	24	217.81729022755
9	242	24.1	221.47599706321
9	243	24.2	221.47599706321
9	244	24.3	221.47599706321
9	245	24.4	221.47599706321
9	246	24.5	221.47599706321
9	247	24.6	221.47599706321
9	248	24.7	221.47599706321
9	249	24.8	221.47599706321
9	250	24.9	221.47599706321
9	251	25	221.47599706321
9	252	25.1	225.50604885642
9	253	25.2	225.50604885642
9	254	25.3	225.50604885642
9	255	25.4	225.50604885642
9	256	25.5	225.50604885642
9	257	25.6	225.50604885642
9	258	25.7	225.50604885642
9	259	25.8	225.50604885642
9	260	25.9	225.50604885642
9	261	26	225.50604885642
9	262	26.1	226.6
9	263	26.2	226.6
9	264	26.3	226.6
9	265	26.4	226.6
9	266	26.5	226.6
9	267	26.6	226.6
9	268	26.7	226.6
9	269	26.8	226.6
9	270	26.9	226.6
9	271	27	226.6
9	272	27.1	226.6
9	273	27.2	226.6
9	274	27.3	226.6
9	275	27.4	226.6
9	276	27.5	226.6
9	277	27.6	226.6
9	278	27.7	226.6
9	279	27.8	226.6
9	280	27.9	226.6
9	281	28	226.6
9	282	28.1	226.6
9	283	28.2	226.6
9	284	28.3	226.6
9	285	28.4	226.6
9	286	28.5	226.6
9	287	28.6	226.6
9	288	28.7	226.6
9	289	28.8	226.6
9	290	28.9	226.6
9	291	29	226.6
9	292	29.1	226.6
9	293	29.2	226.6
9	294	29.3	226.6
9	295	29.4	226.6
9	296	29.5	226.6
9	297	29.6	226.6
9	298	29.7	226.6
9	299	29.8	226.6
9	300	29.9	226.6
9	301	30	226.6
9	302	30.1	226.6
9	303	30.2	226.6
9	304	30.3	226.6
9	305	30.4	226.6
9	306	30.5	226.6
9	307	30.6	226.6
9	308	30.7	226.6
9	309	30.8	226.6
9	310	30.9	226.6
9	311	31	226.6
9	312	31.1	226.6
9	313	31.2	226.6
9	314	31.3	226.6
9	315	31.4	226.6
9	316	31.5	226.6
9	317	31.6	226.6
9	318	31.7	226.6
9	319	31.8	226.6
9	320	31.9	226.6
9	321	32	226.6
9	322	32.1	226.6
9	323	32.2	226.6
9	324	32.3	226.6
9	325	32.4	226.6
9	326	32.5	226.6
9	327	32.6	226.6
9	328	32.7	226.6
9	329	32.8	226.6
9	330	32.9	226.6
9	331	33	226.6
9	332	33.1	226.6
9	333	33.2	226.6
9	334	33.3	226.6
9	335	33.4	226.6
9	336	33.5	226.6
9	337	33.6	226.6
9	338	33.7	226.6
9	339	33.8	226.6
9	340	33.9	226.6
9	341	34	226.6
9	342	34.1	226.6
9	343	34.2	226.6
9	344	34.3	226.6
9	345	34.4	226.6
9	346	34.5	226.6
9	347	34.6	226.6
9	348	34.7	226.6
9	349	34.8	226.6
9	350	34.9	226.6
9	351	35	226.6
9	352	35.1	226.6
9	353	35.2	226.6
9	354	35.3	226.6
9	355	35.4	226.6
9	356	35.5	226.6
9	357	35.6	226.6
9	358	35.7	226.6
9	359	35.8	226.6
9	360	35.9	226.6
9	361	36	226.6
9	362	36.1	226.6
9	363	36.2	226.6
9	364	36.3	226.6
9	365	36.4	226.6
9	366	36.5	226.6
9	367	36.6	226.6
9	368	36.7	226.6
9	369	36.8	226.6
9	370	36.9	226.6
9	371	37	226.6
9	372	37.1	226.6
9	373	37.2	226.6
9	374	37.3	226.6
9	375	37.4	226.6
9	376	37.5	226.6
9	377	37.6	226.6
9	378	37.7	226.6
9	379	37.8	226.6
9	380	37.9	226.6
9	381	38	226.6
9	382	38.1	226.6
9	383	38.2	226.6
9	384	38.3	226.6
9	385	38.4	226.6
9	386	38.5	226.6
9	387	38.6	226.6
9	388	38.7	226.6
9	389	38.8	226.6
9	390	38.9	226.6
9	391	39	226.6
9	392	39.1	226.6
9	393	39.2	226.6
9	394	39.3	226.6
9	395	39.4	226.6
9	396	39.5	226.6
9	397	39.6	226.6
9	398	39.7	226.6
9	399	39.8	226.6
9	400	39.9	226.6
9	401	40	226.6
9	402	40.1	226.6
9	403	40.2	226.6
9	404	40.3	226.6
9	405	40.4	226.6
9	406	40.5	226.6
9	407	40.6	226.6
9	408	40.7	226.6
9	409	40.8	226.6
9	410	40.9	226.6
9	411	41	226.6
9	412	41.1	226.6
9	413	41.2	226.6
9	414	41.3	226.6
9	415	41.4	226.6
9	416	41.5	226.6
9	417	41.6	226.6
9	418	41.7	226.6
9	419	41.8	226.6
9	420	41.9	226.6
9	421	42	226.6
9	422	42.1	226.6
9	423	42.2	226.6
9	424	42.3	226.6
9	425	42.4	226.6
9	426	42.5	226.6
9	427	42.6	226.6
9	428	42.7	226.6
9	429	42.8	226.6
9	430	42.9	226.6
9	431	43	226.6
9	432	43.1	226.6
9	433	43.2	226.6
9	434	43.3	226.6
9	435	43.4	226.6
9	436	43.5	226.6
9	437	43.6	226.6
9	438	43.7	226.6
9	439	43.8	226.6
9	440	43.9	226.6
9	441	44	226.6
9	442	44.1	226.6
9	443	44.2	226.6
9	444	44.3	226.6
9	445	44.4	226.6
9	446	44.5	226.6
9	447	44.6	226.6
9	448	44.7	226.6
9	449	44.8	226.6
9	450	44.9	226.6
9	451	45	226.6
9	452	45.1	226.6
9	453	45.2	226.6
9	454	45.3	226.6
9	455	45.4	226.6
9	456	45.5	226.6
9	457	45.6	226.6
9	458	45.7	226.6
9	459	45.8	226.6
9	460	45.9	226.6
9	461	46	226.6
9	462	46.1	226.6
9	463	46.2	226.6
9	464	46.3	226.6
9	465	46.4	226.6
9	466	46.5	226.6
9	467	46.6	226.6
9	468	46.7	226.6
9	469	46.8	226.6
9	470	46.9	226.6
9	471	47	226.6
9	472	47.1	226.6
9	473	47.2	226.6
9	474	47.3	226.6
9	475	47.4	226.6
9	476	47.5	226.6
9	477	47.6	226.6
9	478	47.7	226.6
9	479	47.8	226.6
9	480	47.9	226.6
9	481	48	226.6
9	482	48.1	226.6
9	483	48.2	226.6
9	484	48.3	226.6
9	485	48.4	226.6
9	486	48.5	226.6
9	487	48.6	226.6
9	488	48.7	226.6
9	489	48.8	226.6
9	490	48.9	226.6
9	491	49	226.6
9	492	49.1	226.6
9	493	49.2	226.6
9	494	49.3	226.6
9	495	49.4	226.6
9	496	49.5	226.6
9	497	49.6	226.6
9	498	49.7	226.6
9	499	49.8	226.6
9	500	49.9	226.6
9	501	50	226.6
9	502	50.1	226.6
9	503	50.2	226.6
9	504	50.3	226.6
9	505	50.4	226.6
9	506	50.5	226.6
9	507	50.6	226.6
9	508	50.7	226.6
9	509	50.8	226.6
9	510	50.9	226.6
9	511	51	226.6
9	512	51.1	226.6
9	513	51.2	226.6
9	514	51.3	226.6
9	515	51.4	226.6
9	516	51.5	226.6
9	517	51.6	226.6
9	518	51.7	226.6
9	519	51.8	226.6
9	520	51.9	226.6
9	521	52	226.6
9	522	52.1	226.6
9	523	52.2	226.6
9	524	52.3	226.6
9	525	52.4	226.6
9	526	52.5	226.6
[...]
83	1147	114.6	1.9848884954014
83	1148	114.7	1.9848884954014
83	1149	114.8	1.9848884954014
83	1150	114.9	1.9848884954014
83	1151	115	1.9848884954014
83	1152	115.1	0.973
83	1153	115.2	1.9135725945103
83	1154	115.3	1.9135725945103
83	1155	115.4	1.9135725945103
83	1156	115.5	1.9135725945103
83	1157	115.6	1.9135725945103
83	1158	115.7	1.9135725945103
83	1159	115.8	1.9135725945103
83	1160	115.9	1.9135725945103
83	1161	116	1.9135725945103
83	1162	116.1	0.973
83	1163	116.2	1.6480696957208
83	1164	116.3	1.6480696957208
83	1165	116.4	1.6480696957208
83	1166	116.5	1.6480696957208
83	1167	116.6	1.6480696957208
83	1168	116.7	1.6480696957208
83	1169	116.8	1.6480696957208
83	1170	116.9	1.6480696957208
83	1171	117	1.6480696957208
83	1172	117.1	0.973
83	1173	117.2	1.3891719281976
83	1174	117.3	1.3891719281976
83	1175	117.4	1.3891719281976
83	1176	117.5	1.3891719281976
83	1177	117.6	1.3891719281976
83	1178	117.7	1.3891719281976
83	1179	117.8	1.3891719281976
83	1180	117.9	1.3891719281976
83	1181	118	1.3891719281976
83	1182	118.1	0.973
83	1183	118.2	1.209590529546
83	1184	118.3	1.209590529546
83	1185	118.4	1.209590529546
83	1186	118.5	1.209590529546
83	1187	118.6	1.209590529546
83	1188	118.7	1.209590529546
83	1189	118.8	1.209590529546
83	1190	118.9	1.209590529546
83	1191	119	1.209590529546
83	1328	119.1	0.973
83	1329	119.2	1.1405450245463
83	1330	119.3	1.1405450245463
83	1331	119.4	1.1405450245463
83	1332	119.5	1.1405450245463
83	1333	119.6	1.1405450245463
83	1334	119.7	1.1405450245463
83	1335	119.8	1.1405450245463
83	1336	119.9	1.1405450245463
83	1337	120	1.1405450245463
83	1338	120.1	0.973
83	1339	120.2	1.1342330809844
83	1340	120.3	1.1342330809844
83	1341	120.4	1.1342330809844
83	1342	120.5	1.1342330809844
83	1343	120.6	1.1342330809844
83	1344	120.7	1.1342330809844
83	1345	120.8	1.1342330809844
83	1346	120.9	1.1342330809844
83	1347	121	1.1342330809844
83	1693	121.1	12.628652528245
83	2037	121.2	1.2290663351807
83	2038	121.3	1.2290663351807
83	2039	121.4	1.2290663351807
83	2040	121.5	1.2290663351807
83	2041	121.6	1.2290663351807
83	2042	121.7	1.2290663351807
83	2043	121.8	1.2290663351807
83	2044	121.9	1.2290663351807
83	2045	122	1.2290663351807
83	2046	122.1	14.635966185913
83	2047	122.2	1.3020441587841
83	2048	122.3	1.3020441587841
83	2049	122.4	1.3020441587841
83	2050	122.5	1.3020441587841
83	2051	122.6	1.3020441587841
83	2052	122.7	1.3020441587841
83	2053	122.8	1.3020441587841
83	2054	122.9	1.3020441587841
83	2055	123	1.3020441587841
83	2124	123.1	24.735740829093
83	2329	123.2	1.3963400862019
83	2534	123.3	1.3963400862019
83	2603	123.4	1.3963400862019
83	2604	123.5	1.3963400862019
83	2605	123.6	1.3963400862019
83	2606	123.7	1.3963400862019
83	2607	123.8	1.3963400862019
83	2608	123.9	1.3963400862019
83	2609	124	1.3963400862019
83	2610	124.1	38.311931143044
83	2611	124.2	1.517602433888
83	2612	124.3	1.517602433888
83	2613	124.4	1.517602433888
83	2614	124.5	1.517602433888
83	2615	124.6	1.517602433888
83	2616	124.7	1.517602433888
83	2617	124.8	1.517602433888
83	2618	124.9	1.517602433888
83	2619	125	1.517602433888
83	2620	125.1	44.324473319949
83	2621	125.2	1.6456941190161
83	2622	125.3	1.6456941190161
83	2623	125.4	1.6456941190161
83	2624	125.5	1.6456941190161
83	2625	125.6	1.6456941190161
83	2626	125.7	1.6456941190161
83	2627	125.8	1.6456941190161
83	2628	125.9	1.6456941190161
83	2629	126	1.6456941190161
83	2630	126.1	62.975671556596
83	2631	126.2	1.818336773445
83	2632	126.3	1.818336773445
83	2633	126.4	1.818336773445
83	2634	126.5	1.818336773445
83	2635	126.6	1.818336773445
83	2636	126.7	1.818336773445
83	2637	126.8	1.818336773445
83	2638	126.9	1.818336773445
83	2639	127	1.818336773445
83	2640	127.1	52.249881528579
83	2641	127.2	1.9621691892203
83	2642	127.3	1.9621691892203
83	2643	127.4	1.9621691892203
83	2644	127.5	1.9621691892203
83	2645	127.6	1.9621691892203
83	2646	127.7	1.9621691892203
83	2647	127.8	1.9621691892203
83	2648	127.9	1.9621691892203
83	2649	128	1.9621691892203
83	2650	128.1	0.973
83	2651	128.2	1.9550794482825
83	2652	128.3	1.9550794482825
83	2653	128.4	1.9550794482825
83	2654	128.5	1.9550794482825
83	2655	128.6	1.9550794482825
83	2656	128.7	1.9550794482825
83	2657	128.8	1.9550794482825
83	2658	128.9	1.9550794482825
83	2659	129	1.9550794482825
83	2660	129.1	0.973
83	2661	129.2	1.896543760457
83	2662	129.3	1.896543760457
83	2663	129.4	1.896543760457
83	2664	129.5	1.896543760457
83	2665	129.6	1.896543760457
83	2666	129.7	1.896543760457
83	2667	129.8	1.896543760457
83	2668	129.9	1.896543760457
83	2669	130	1.896543760457
83	2670	130.1	0.973
83	2671	130.2	1.8696745613646
83	2672	130.3	1.8696745613646
83	2673	130.4	1.8696745613646
83	2674	130.5	1.8696745613646
83	2675	130.6	1.8696745613646
83	2676	130.7	1.8696745613646
83	2677	130.8	1.8696745613646
83	2678	130.9	1.8696745613646
83	2679	131	1.8696745613646
83	2680	131.1	0.973
83	2681	131.2	1.5260790588053
83	2682	131.3	1.5260790588053
83	2683	131.4	1.5260790588053
83	2684	131.5	1.5260790588053
83	2685	131.6	1.5260790588053
83	2686	131.7	1.5260790588053
83	2687	131.8	1.5260790588053
83	2688	131.9	1.5260790588053
83	2689	132	1.5260790588053
83	2690	132.1	0.973
83	2691	132.2	1.2902476176458
83	2692	132.3	1.2902476176458
83	2693	132.4	1.2902476176458
83	2694	132.5	1.2902476176458
83	2695	132.6	1.2902476176458
83	2696	132.7	1.2902476176458
83	2697	132.8	1.2902476176458
83	2698	132.9	1.2902476176458
83	2699	133	1.2902476176458
83	2700	133.1	34.68751526239
83	2701	133.2	1.417073260768
83	2702	133.3	1.417073260768
83	2703	133.4	1.417073260768
83	2704	133.5	1.417073260768
83	2705	133.6	1.417073260768
83	2706	133.7	1.417073260768
83	2707	133.8	1.417073260768
83	2708	133.9	1.417073260768
83	2709	134	1.417073260768
83	2710	134.1	14.975125996415
83	2711	134.2	1.4662304960219
83	2712	134.3	1.4662304960219
83	2713	134.4	1.4662304960219
83	2714	134.5	1.4662304960219
83	2715	134.6	1.4662304960219
83	2716	134.7	1.4662304960219
83	2717	134.8	1.4662304960219
83	2718	134.9	1.4662304960219
83	2719	135	1.4662304960219
83	2720	135.1	45.082296353318
83	2721	135.2	1.5995267054568
83	2722	135.3	1.5995267054568
83	2723	135.4	1.5995267054568
83	2724	135.5	1.5995267054568
83	2725	135.6	1.5995267054568
83	2726	135.7	1.5995267054568
83	2727	135.8	1.5995267054568
83	2728	135.9	1.5995267054568
83	2729	136	1.5995267054568
83	2730	136.1	68.35186579351
84	1084	108.3	0
84	1085	108.4	0
84	1086	108.5	0
84	1087	108.6	0
84	1088	108.7	0
84	1089	108.8	0
84	1090	108.9	0
84	1091	109	0
84	1092	109.1	21.151813277742
84	1093	109.2	0
84	1094	109.3	0
84	1095	109.4	0
84	1096	109.5	0
84	1097	109.6	0
84	1098	109.7	0
84	1099	109.8	0
84	1100	109.9	0
84	1101	110	0
84	1102	110.1	23.325432231883
84	1103	110.2	0
84	1104	110.3	0
84	1105	110.4	0
84	1106	110.5	0
84	1107	110.6	0
84	1108	110.7	0
84	1109	110.8	0
84	1110	110.9	0
84	1111	111	0
84	1112	111.1	15.681730683427
84	1113	111.2	0
84	1114	111.3	0
84	1115	111.4	0
84	1116	111.5	0
84	1117	111.6	0
84	1118	111.7	0
84	1119	111.8	0
84	1120	111.9	0
84	1121	112	0
84	1122	112.1	14.160404980648
84	1123	112.2	0
84	1124	112.3	0
84	1125	112.4	0
84	1126	112.5	0
84	1127	112.6	0
84	1128	112.7	0
84	1129	112.8	0
84	1130	112.9	0
84	1131	113	0
84	1132	113.1	24.036216476001
84	1133	113.2	0
84	1134	113.3	0
84	1135	113.4	0
84	1136	113.5	0
84	1137	113.6	0
84	1138	113.7	0
84	1139	113.8	0
84	1140	113.9	0
84	1141	114	0
84	1142	114.1	23.792441955302
84	1143	114.2	0
84	1144	114.3	0
84	1145	114.4	0
84	1146	114.5	0
84	1147	114.6	0
84	1148	114.7	0
84	1149	114.8	0
84	1150	114.9	0
84	1151	115	0
84	1152	115.1	23.790744983824
84	1153	115.2	0
84	1154	115.3	0
84	1155	115.4	0
84	1156	115.5	0
84	1157	115.6	0
84	1158	115.7	0
84	1159	115.8	0
84	1160	115.9	0
84	1161	116	0
84	1162	116.1	-32.848948678531
84	1163	116.2	0
84	1164	116.3	0
84	1165	116.4	0
84	1166	116.5	0
84	1167	116.6	0
84	1168	116.7	0
84	1169	116.8	0
84	1170	116.9	0
84	1171	117	0
84	1172	117.1	-33.639644101495
84	1173	117.2	0
84	1174	117.3	0
84	1175	117.4	0
84	1176	117.5	0
84	1177	117.6	0
84	1178	117.7	0
84	1179	117.8	0
84	1180	117.9	0
84	1181	118	0
84	1182	118.1	0.10286523401738
84	1183	118.2	0
84	1184	118.3	0
84	1185	118.4	0
84	1186	118.5	0
84	1187	118.6	0
84	1188	118.7	0
84	1189	118.8	0
84	1190	118.9	0
84	1191	119	0
84	1328	119.1	-11.65877636103
84	1329	119.2	0
84	1330	119.3	0
84	1331	119.4	0
84	1332	119.5	0
84	1333	119.6	0
84	1334	119.7	0
84	1335	119.8	0
84	1336	119.9	0
84	1337	120	0
84	1338	120.1	15.598427150864
84	1339	120.2	0
84	1340	120.3	0
84	1341	120.4	0
84	1342	120.5	0
84	1343	120.6	0
84	1344	120.7	0
84	1345	120.8	0
84	1346	120.9	0
84	1347	121	0
84	1693	121.1	22.337890154682
84	2037	121.2	0
84	2038	121.3	0
84	2039	121.4	0
84	2040	121.5	0
84	2041	121.6	0
84	2042	121.7	0
84	2043	121.8	0
84	2044	121.9	0
84	2045	122	0
84	2046	122.1	24.057223164942
84	2047	122.2	0
84	2048	122.3	0
84	2049	122.4	0
84	2050	122.5	0
84	2051	122.6	0
84	2052	122.7	0
84	2053	122.8	0
84	2054	122.9	0
84	2055	123	0
84	2124	123.1	19.667261510508
84	2329	123.2	0
84	2534	123.3	0
84	2603	123.4	0
84	2604	123.5	0
84	2605	123.6	0
84	2606	123.7	0
84	2607	123.8	0
84	2608	123.9	0
84	2609	124	0
84	2610	124.1	-4.9110990895424
84	2611	124.2	0
84	2612	124.3	0
84	2613	124.4	0
84	2614	124.5	0
84	2615	124.6	0
84	2616	124.7	0
84	2617	124.8	0
84	2618	124.9	0
84	2619	125	0
84	2620	125.1	-37.498469458919
84	2621	125.2	0
84	2622	125.3	0
84	2623	125.4	0
84	2624	125.5	0
84	2625	125.6	0
84	2626	125.7	0
84	2627	125.8	0
84	2628	125.9	0
84	2629	126	0
84	2630	126.1	-41.296581600094
84	2631	126.2	0
84	2632	126.3	0
84	2633	126.4	0
84	2634	126.5	0
84	2635	126.6	0
84	2636	126.7	0
84	2637	126.8	0
84	2638	126.9	0
84	2639	127	0
84	2640	127.1	-8.062912459587
84	2641	127.2	0
84	2642	127.3	0
84	2643	127.4	0
84	2644	127.5	0
84	2645	127.6	0
84	2646	127.7	0
84	2647	127.8	0
84	2648	127.9	0
84	2649	128	0
84	2650	128.1	-1.1632440236863
84	2651	128.2	0
84	2652	128.3	0
84	2653	128.4	0
84	2654	128.5	0
84	2655	128.6	0
84	2656	128.7	0
84	2657	128.8	0
84	2658	128.9	0
84	2659	129	0
84	2660	129.1	20.774131913902
84	2661	129.2	0
84	2662	129.3	0
84	2663	129.4	0
84	2664	129.5	0
84	2665	129.6	0
84	2666	129.7	0
84	2667	129.8	0
84	2668	129.9	0
84	2669	130	0
84	2670	130.1	16.551280036336
84	2671	130.2	0
84	2672	130.3	0
84	2673	130.4	0
84	2674	130.5	0
84	2675	130.6	0
84	2676	130.7	0
84	2677	130.8	0
84	2678	130.9	0
84	2679	131	0
84	2680	131.1	25.066124767996
84	2681	131.2	0
84	2682	131.3	0
84	2683	131.4	0
84	2684	131.5	0
84	2685	131.6	0
84	2686	131.7	0
84	2687	131.8	0
84	2688	131.9	0
84	2689	132	0
84	2690	132.1	24.382543417159
84	2691	132.2	0
84	2692	132.3	0
84	2693	132.4	0
84	2694	132.5	0
84	2695	132.6	0
84	2696	132.7	0
84	2697	132.8	0
84	2698	132.9	0
84	2699	133	0
84	2700	133.1	8.9075043593876
84	2701	133.2	0
84	2702	133.3	0
84	2703	133.4	0
84	2704	133.5	0
84	2705	133.6	0
84	2706	133.7	0
84	2707	133.8	0
84	2708	133.9	0
84	2709	134	0
84	2710	134.1	-45
84	2711	134.2	0
84	2712	134.3	0
84	2713	134.4	0
84	2714	134.5	0
84	2715	134.6	0
84	2716	134.7	0
84	2717	134.8	0
84	2718	134.9	0
84	2719	135	0
84	2720	135.1	-44.444256987962
84	2721	135.2	0
84	2722	135.3	0
84	2723	135.4	0
84	2724	135.5	0
84	2725	135.6	0
84	2726	135.7	0
84	2727	135.8	0
84	2728	135.9	0
84	2729	136	0
84	2730	136.1	13.412785705179
85	1084	108.3	0.973
85	1085	108.4	0.973
85	1086	108.5	0.973
85	1087	108.6	0.973
85	1088	108.7	0.973
85	1089	108.8	0.973
85	1090	108.9	0.973
85	1091	109	0.973
85	1092	109.1	11.995231395686
85	1093	109.2	1.2129105567174
85	1094	109.3	1.2129105567174
85	1095	109.4	1.2129105567174
85	1096	109.5	1.2129105567174
85	1097	109.6	1.2129105567174
85	1098	109.7	1.2129105567174
85	1099	109.8	1.2129105567174
85	1100	109.9	1.2129105567174
85	1101	110	1.2129105567174
85	1102	110.1	26.335254803387
85	1103	110.2	1.3326862818941
85	1104	110.3	1.3326862818941
85	1105	110.4	1.3326862818941
85	1106	110.5	1.3326862818941
85	1107	110.6	1.3326862818941
85	1108	110.7	1.3326862818941
85	1109	110.8	1.3326862818941
85	1110	110.9	1.3326862818941
85	1111	111	1.3326862818941
85	1112	111.1	24.156184163807
85	1113	111.2	1.4203197691188
85	1114	111.3	1.4203197691188
85	1115	111.4	1.4203197691188
85	1116	111.5	1.4203197691188
85	1117	111.6	1.4203197691188
85	1118	111.7	1.4203197691188
85	1119	111.8	1.4203197691188
85	1120	111.9	1.4203197691188
85	1121	112	1.4203197691188
85	1122	112.1	26.869097723394
85	1123	112.2	1.5064376219229
85	1124	112.3	1.5064376219229
85	1125	112.4	1.5064376219229
85	1126	112.5	1.5064376219229
85	1127	112.6	1.5064376219229
85	1128	112.7	1.5064376219229
85	1129	112.8	1.5064376219229
85	1130	112.9	1.5064376219229
85	1131	113	1.5064376219229
85	1132	113.1	58.647087695562
85	1133	113.2	1.6723635702572
85	1134	113.3	1.6723635702572
85	1135	113.4	1.6723635702572
85	1136	113.5	1.6723635702572
85	1137	113.6	1.6723635702572
85	1138	113.7	1.6723635702572
85	1139	113.8	1.6723635702572
85	1140	113.9	1.6723635702572
85	1141	114	1.6723635702572
85	1142	114.1	71.907022966024
85	1143	114.2	1.8675995376555
85	1144	114.3	1.8675995376555
85	1145	114.4	1.8675995376555
85	1146	114.5	1.8675995376555
85	1147	114.6	1.8675995376555
85	1148	114.7	1.8675995376555
85	1149	114.8	1.8675995376555
85	1150	114.9	1.8675995376555
85	1151	115	1.8675995376555
85	1152	115.1	85.776159878284
85	1153	115.2	2.1011428598958
85	1154	115.3	2.1011428598958
85	1155	115.4	2.1011428598958
85	1156	115.5	2.1011428598958
85	1157	115.6	2.1011428598958
85	1158	115.7	2.1011428598958
85	1159	115.8	2.1011428598958
85	1160	115.9	2.1011428598958
85	1161	116	2.1011428598958
85	1162	116.1	0.973
85	1163	116.2	1.789156737577
85	1164	116.3	1.789156737577
85	1165	116.4	1.789156737577
85	1166	116.5	1.789156737577
85	1167	116.6	1.789156737577
85	1168	116.7	1.789156737577
85	1169	116.8	1.789156737577
85	1170	116.9	1.789156737577
85	1171	117	1.789156737577
85	1172	117.1	0.973
85	1173	117.2	1.5395972177554
85	1174	117.3	1.5395972177554
85	1175	117.4	1.5395972177554
85	1176	117.5	1.5395972177554
85	1177	117.6	1.5395972177554
85	1178	117.7	1.5395972177554
85	1179	117.8	1.5395972177554
85	1180	117.9	1.5395972177554
85	1181	118	1.5395972177554
85	1182	118.1	1.7374897992748
85	1183	118.2	1.5402736229836
85	1184	118.3	1.5402736229836
85	1185	118.4	1.5402736229836
85	1186	118.5	1.5402736229836
85	1187	118.6	1.5402736229836
85	1188	118.7	1.5402736229836
85	1189	118.8	1.5402736229836
85	1190	118.9	1.5402736229836
85	1191	119	1.5402736229836
85	1328	119.1	0.973
85	1329	119.2	1.4664336193485
85	1330	119.3	1.4664336193485
85	1331	119.4	1.4664336193485
85	1332	119.5	1.4664336193485
85	1333	119.6	1.4664336193485
85	1334	119.7	1.4664336193485
85	1335	119.8	1.4664336193485
85	1336	119.9	1.4664336193485
85	1337	120	1.4664336193485
85	1338	120.1	32.953289725576
85	1339	120.2	1.5665361353563
85	1340	120.3	1.5665361353563
85	1341	120.4	1.5665361353563
85	1342	120.5	1.5665361353563
85	1343	120.6	1.5665361353563
85	1344	120.7	1.5665361353563
85	1345	120.8	1.5665361353563
85	1346	120.9	1.5665361353563
85	1347	121	1.5665361353563
85	1693	121.1	58.703202644815
85	2037	121.2	1.7300248692404
85	2038	121.3	1.7300248692404
85	2039	121.4	1.7300248692404
85	2040	121.5	1.7300248692404
85	2041	121.6	1.7300248692404
85	2042	121.7	1.7300248692404
85	2043	121.8	1.7300248692404
85	2044	121.9	1.7300248692404
85	2045	122	1.7300248692404
85	2046	122.1	77.245251526789
85	2047	122.2	1.9390102999599
85	2048	122.3	1.9390102999599
85	2049	122.4	1.9390102999599
85	2050	122.5	1.9390102999599
85	2051	122.6	1.9390102999599
85	2052	122.7	1.9390102999599
85	2053	122.8	1.9390102999599
85	2054	122.9	1.9390102999599
85	2055	123	1.9390102999599
85	2124	123.1	73.026734339416
85	2329	123.2	2.1404663444106
85	2534	123.3	2.1404663444106
85	2603	123.4	2.1404663444106
85	2604	123.5	2.1404663444106
85	2605	123.6	2.1404663444106
85	2606	123.7	2.1404663444106
85	2607	123.8	2.1404663444106
85	2608	123.9	2.1404663444106
85	2609	124	2.1404663444106
85	2610	124.1	0.973
85	2611	124.2	2.0873217932091
85	2612	124.3	2.0873217932091
85	2613	124.4	2.0873217932091
85	2614	124.5	2.0873217932091
85	2615	124.6	2.0873217932091
85	2616	124.7	2.0873217932091
85	2617	124.8	2.0873217932091
85	2618	124.9	2.0873217932091
85	2619	125	2.0873217932091
85	2620	125.1	0.973
85	2621	125.2	1.7405003957346
85	2622	125.3	1.7405003957346
85	2623	125.4	1.7405003957346
85	2624	125.5	1.7405003957346
85	2625	125.6	1.7405003957346
85	2626	125.7	1.7405003957346
85	2627	125.8	1.7405003957346
85	2628	125.9	1.7405003957346
85	2629	126	1.7405003957346
85	2630	126.1	0.973
85	2631	126.2	1.4540318562839
85	2632	126.3	1.4540318562839
85	2633	126.4	1.4540318562839
85	2634	126.5	1.4540318562839
85	2635	126.6	1.4540318562839
85	2636	126.7	1.4540318562839
85	2637	126.8	1.4540318562839
85	2638	126.9	1.4540318562839
85	2639	127	1.4540318562839
85	2640	127.1	0.973
85	2641	127.2	1.4065852329947
85	2642	127.3	1.4065852329947
85	2643	127.4	1.4065852329947
85	2644	127.5	1.4065852329947
85	2645	127.6	1.4065852329947
85	2646	127.7	1.4065852329947
85	2647	127.8	1.4065852329947
85	2648	127.9	1.4065852329947
85	2649	128	1.4065852329947
85	2650	128.1	0.973
85	2651	128.2	1.3999187775355
85	2652	128.3	1.3999187775355
85	2653	128.4	1.3999187775355
85	2654	128.5	1.3999187775355
85	2655	128.6	1.3999187775355
85	2656	128.7	1.3999187775355
85	2657	128.8	1.3999187775355
85	2658	128.9	1.3999187775355
85	2659	129	1.3999187775355
85	2660	129.1	40.275463401761
85	2661	129.2	1.5261922352325
85	2662	129.3	1.5261922352325
85	2663	129.4	1.5261922352325
85	2664	129.5	1.5261922352325
85	2665	129.6	1.5261922352325
85	2666	129.7	1.5261922352325
85	2667	129.8	1.5261922352325
85	2668	129.9	1.5261922352325
85	2669	130	1.5261922352325
85	2670	130.1	39.114410385417
85	2671	130.2	1.6398076722057
85	2672	130.3	1.6398076722057
85	2673	130.4	1.6398076722057
85	2674	130.5	1.6398076722057
85	2675	130.6	1.6398076722057
85	2676	130.7	1.6398076722057
85	2677	130.8	1.6398076722057
85	2678	130.9	1.6398076722057
85	2679	131	1.6398076722057
85	2680	131.1	73.735639785762
85	2681	131.2	1.8398543233419
85	2682	131.3	1.8398543233419
85	2683	131.4	1.8398543233419
85	2684	131.5	1.8398543233419
85	2685	131.6	1.8398543233419
85	2686	131.7	1.8398543233419
85	2687	131.8	1.8398543233419
85	2688	131.9	1.8398543233419
85	2689	132	1.8398543233419
85	2690	132.1	86.336896419084
85	2691	132.2	2.0741366993029
85	2692	132.3	2.0741366993029
85	2693	132.4	2.0741366993029
85	2694	132.5	2.0741366993029
85	2695	132.6	2.0741366993029
85	2696	132.7	2.0741366993029
85	2697	132.8	2.0741366993029
85	2698	132.9	2.0741366993029
85	2699	133	2.0741366993029
85	2700	133.1	34.866393143226
85	2701	133.2	2.1710858396102
85	2702	133.3	2.1710858396102
85	2703	133.4	2.1710858396102
85	2704	133.5	2.1710858396102
85	2705	133.6	2.1710858396102
85	2706	133.7	2.1710858396102
85	2707	133.8	2.1710858396102
85	2708	133.9	2.1710858396102
85	2709	134	2.1710858396102
85	2710	134.1	0.973
85	2711	134.2	1.7417728019381
85	2712	134.3	1.7417728019381
85	2713	134.4	1.7417728019381
85	2714	134.5	1.7417728019381
85	2715	134.6	1.7417728019381
85	2716	134.7	1.7417728019381
85	2717	134.8	1.7417728019381
85	2718	134.9	1.7417728019381
85	2719	135	1.7417728019381
85	2720	135.1	0.973
85	2721	135.2	1.4361826628646
85	2722	135.3	1.4361826628646
85	2723	135.4	1.4361826628646
85	2724	135.5	1.4361826628646
85	2725	135.6	1.4361826628646
85	2726	135.7	1.4361826628646
85	2727	135.8	1.4361826628646
85	2728	135.9	1.4361826628646
85	2729	136	1.4361826628646
85	2730	136.1	26.174000160948

